version 3
run General-0-20220118-11:14:34-54766
attr configname General
attr datetime 20220118-11:14:34
attr datetimef 20220118-111434
attr experiment General
attr inifile omnetpp.ini
attr iterationvars ""
attr iterationvarsd ""
attr iterationvarsf ""
attr measurement ""
attr network simulation_examples.simulations.mechostdyn_test.MECHOSTDYN_test1
attr processid 54766
attr repetition 0
attr replication #0
attr resultdir results
attr runnumber 0
attr seedset 0
config image-path ../../../inet4.3/images:../../../Simu5G/images:../../../veins_inet/images:../../../veins/images
config network simulation_examples.simulations.mechostdyn_test.MECHOSTDYN_test1
config sim-time-limit 70s
config **.numBands 25
config **.ueTxPower 26
config **.eNodeBTxPower 46
config **.mechost.macNodeId 0
config *.mechost.cellularNic.nrPhy.dynamicCellAssociation true
config *.mechost.masterId 0
config *.mechost.macCellId 0
config *.mechost.nrMasterId 1
config *.mechost.nrMacCellId 1
config **.gNodeB1.macCellId 1
config **.gNodeB1.macNodeId 1
config **.mechost.mobility.initFromDisplayString false
config **.mechost.mobility.initialX 380m
config **.mechost.mobility.initialY 150m
config **.mechost.mobility.initialZ 0m
config *.car.mobilityType "\"LinearMobility\""
config **.car.mobility.initialX 100m
config **.car.mobility.initialY 250m
config **.car.mobility.initialMovementHeading 0deg
config **.car.mobility.speed 10mps
config *.car.cellularNic.nrPhy.dynamicCellAssociation true
config *.car.masterId 0
config *.car.macCellId 0
config *.car.nrMasterId 1
config *.car.nrMacCellId 1
config *.mechost.app[0].localAddress "\"mechost\""
config *.mechost.app[1].localAddress "\"mechost\""
config *.mechost.app[1].mecOrchestratorPort 3300
config *.mechost.app[1].mecOrchestratorAddress "\"mechost\""
config *.car.numApps 1
config *.car.app[0].typename RegistrationVim
config *.car.app[0].localPort 3333
config *.car.app[0].destPort 3334
config *.car.app[0].destAddress "\"mechost\""
config *.car.app[0].localAddress "\"car\""

par MECHOSTDYN_test1.routingRecorder typename "\"inet.networklayer.ipv4.RoutingTableRecorder\""
par MECHOSTDYN_test1.routingRecorder enabled true
par MECHOSTDYN_test1.configurator typename "\"inet.networklayer.configurator.ipv4.Ipv4NetworkConfigurator\""
par MECHOSTDYN_test1.configurator minLinkWeight 0.001
par MECHOSTDYN_test1.configurator configureIsolatedNetworksSeparatly false
par MECHOSTDYN_test1.configurator config "<config>...</config> at content:1"
par MECHOSTDYN_test1.configurator assignAddresses true
par MECHOSTDYN_test1.configurator assignUniqueAddresses true
par MECHOSTDYN_test1.configurator assignDisjunctSubnetAddresses true
par MECHOSTDYN_test1.configurator addStaticRoutes true
par MECHOSTDYN_test1.configurator addDefaultRoutes true
par MECHOSTDYN_test1.configurator addSubnetRoutes true
par MECHOSTDYN_test1.configurator addDirectRoutes true
par MECHOSTDYN_test1.configurator optimizeRoutes true
par MECHOSTDYN_test1.configurator dumpTopology false
par MECHOSTDYN_test1.configurator dumpLinks false
par MECHOSTDYN_test1.configurator dumpAddresses false
par MECHOSTDYN_test1.configurator dumpRoutes false
par MECHOSTDYN_test1.configurator dumpConfig "\"\""
par MECHOSTDYN_test1.channelControl typename "\"simu5g.world.radio.LteChannelControl\""
par MECHOSTDYN_test1.channelControl coreDebug false
par MECHOSTDYN_test1.channelControl pMax 20mW
attr unit mW
par MECHOSTDYN_test1.channelControl sat -110dBm
attr unit dBm
par MECHOSTDYN_test1.channelControl alpha 2
par MECHOSTDYN_test1.channelControl carrierFrequency 2.4e+09Hz
attr unit Hz
par MECHOSTDYN_test1.channelControl numChannels 1
par MECHOSTDYN_test1.channelControl propagationModel "\"FreeSpaceModel\""
attr enum FreeSpaceModel,TwoRayGroundModel,RiceModel,RayleighModel,NakagamiModel,LogNormalShadowingModel
par MECHOSTDYN_test1.binder typename "\"simu5g.common.binder.Binder\""
par MECHOSTDYN_test1.binder blerShift 0
par MECHOSTDYN_test1.binder maxDataRatePerRb 1.16Mbps
attr unit Mbps
par MECHOSTDYN_test1.binder printTrafficGeneratorConfig false
par MECHOSTDYN_test1.carrierAggregation.componentCarrier[0] typename "\"simu5g.common.carrierAggregation.ComponentCarrier\""
par MECHOSTDYN_test1.carrierAggregation.componentCarrier[0] carrierFrequency 2GHz
attr unit GHz
par MECHOSTDYN_test1.carrierAggregation.componentCarrier[0] numBands 25
par MECHOSTDYN_test1.carrierAggregation.componentCarrier[0] numerologyIndex 0
par MECHOSTDYN_test1.carrierAggregation.componentCarrier[0] useTdd false
par MECHOSTDYN_test1.carrierAggregation.componentCarrier[0] tddNumSymbolsDl 7
par MECHOSTDYN_test1.carrierAggregation.componentCarrier[0] tddNumSymbolsUl 7
par MECHOSTDYN_test1.carrierAggregation typename "\"simu5g.common.carrierAggregation.CarrierAggregation\""
par MECHOSTDYN_test1.carrierAggregation numComponentCarriers 1
par MECHOSTDYN_test1.gNodeB1.interfaceTable typename "\"inet.networklayer.common.InterfaceTable\""
par MECHOSTDYN_test1.gNodeB1.interfaceTable displayAddresses false
par MECHOSTDYN_test1.gNodeB1.mobility typename "\"inet.mobility.static.StationaryMobility\""
par MECHOSTDYN_test1.gNodeB1.mobility subjectModule "\"^\""
par MECHOSTDYN_test1.gNodeB1.mobility coordinateSystemModule "\"\""
par MECHOSTDYN_test1.gNodeB1.mobility displayStringTextFormat "\"p: %p\\nv: %v\""
par MECHOSTDYN_test1.gNodeB1.mobility updateDisplayString true
par MECHOSTDYN_test1.gNodeB1.mobility constraintAreaMinX "-inf m"
attr unit m
par MECHOSTDYN_test1.gNodeB1.mobility constraintAreaMinY "-inf m"
attr unit m
par MECHOSTDYN_test1.gNodeB1.mobility constraintAreaMinZ "-inf m"
attr unit m
par MECHOSTDYN_test1.gNodeB1.mobility constraintAreaMaxX "inf m"
attr unit m
par MECHOSTDYN_test1.gNodeB1.mobility constraintAreaMaxY "inf m"
attr unit m
par MECHOSTDYN_test1.gNodeB1.mobility constraintAreaMaxZ "inf m"
attr unit m
par MECHOSTDYN_test1.gNodeB1.mobility initialX "nan m"
attr unit m
par MECHOSTDYN_test1.gNodeB1.mobility initialY "nan m"
attr unit m
par MECHOSTDYN_test1.gNodeB1.mobility initialZ 0m
attr unit m
par MECHOSTDYN_test1.gNodeB1.mobility initialLatitude "nan deg"
attr unit deg
par MECHOSTDYN_test1.gNodeB1.mobility initialLongitude "nan deg"
attr unit deg
par MECHOSTDYN_test1.gNodeB1.mobility initialAltitude 0m
attr unit m
par MECHOSTDYN_test1.gNodeB1.mobility initialHeading 0deg
attr unit deg
par MECHOSTDYN_test1.gNodeB1.mobility initialElevation 0deg
attr unit deg
par MECHOSTDYN_test1.gNodeB1.mobility initialBank 0deg
attr unit deg
par MECHOSTDYN_test1.gNodeB1.mobility initFromDisplayString true
par MECHOSTDYN_test1.gNodeB1.mobility updateFromDisplayString true
par MECHOSTDYN_test1.gNodeB1.cellInfo typename "\"simu5g.common.cellInfo.CellInfo\""
par MECHOSTDYN_test1.gNodeB1.cellInfo constraintAreaMinX "-inf m"
attr unit m
par MECHOSTDYN_test1.gNodeB1.cellInfo constraintAreaMinY "-inf m"
attr unit m
par MECHOSTDYN_test1.gNodeB1.cellInfo constraintAreaMaxX "inf m"
attr unit m
par MECHOSTDYN_test1.gNodeB1.cellInfo constraintAreaMaxY "inf m"
attr unit m
par MECHOSTDYN_test1.gNodeB1.cellInfo speed 0mps
attr unit mps
par MECHOSTDYN_test1.gNodeB1.cellInfo positionUpdateInterval 0.001s
attr unit s
par MECHOSTDYN_test1.gNodeB1.cellInfo broadcastMessageInterval 1s
attr unit s
par MECHOSTDYN_test1.gNodeB1.cellInfo microCell false
par MECHOSTDYN_test1.gNodeB1.cellInfo numRus 0
par MECHOSTDYN_test1.gNodeB1.cellInfo ruRange 0
par MECHOSTDYN_test1.gNodeB1.cellInfo ruStartingAngle 0deg
attr unit deg
par MECHOSTDYN_test1.gNodeB1.cellInfo ruTxPower "\"0;\""
par MECHOSTDYN_test1.gNodeB1.cellInfo antennaCws "\"1;\""
par MECHOSTDYN_test1.gNodeB1.cellInfo rbyDl 12
par MECHOSTDYN_test1.gNodeB1.cellInfo rbyUl 12
par MECHOSTDYN_test1.gNodeB1.cellInfo rbxDl 7
par MECHOSTDYN_test1.gNodeB1.cellInfo rbxUl 7
par MECHOSTDYN_test1.gNodeB1.cellInfo rbPilotDl 3
par MECHOSTDYN_test1.gNodeB1.cellInfo rbPilotUl 0
par MECHOSTDYN_test1.gNodeB1.cellInfo signalDl 1
par MECHOSTDYN_test1.gNodeB1.cellInfo signalUl 1
par MECHOSTDYN_test1.gNodeB1.cellInfo numPreferredBands 1
par MECHOSTDYN_test1.gNodeB1.cellularNic.ip2nic.upperLayerOut.channel typename "\"ned.DelayChannel\""
par MECHOSTDYN_test1.gNodeB1.cellularNic.ip2nic.upperLayerOut.channel disabled false
par MECHOSTDYN_test1.gNodeB1.cellularNic.ip2nic.upperLayerOut.channel delay 0s
attr unit s
par MECHOSTDYN_test1.gNodeB1.cellularNic.upperLayerIn.channel typename "\"ned.DelayChannel\""
par MECHOSTDYN_test1.gNodeB1.cellularNic.upperLayerIn.channel disabled false
par MECHOSTDYN_test1.gNodeB1.cellularNic.upperLayerIn.channel delay 0s
attr unit s
par MECHOSTDYN_test1.gNodeB1.cellularNic.ip2nic typename "\"simu5g.stack.ip2nic.IP2Nic\""
par MECHOSTDYN_test1.gNodeB1.cellularNic.ip2nic nodeType "\"GNODEB\""
par MECHOSTDYN_test1.gNodeB1.cellularNic.ip2nic interfaceTableModule "\"MECHOSTDYN_test1.gNodeB1.interfaceTable\""
par MECHOSTDYN_test1.gNodeB1.cellularNic.ip2nic routingTableModule "\"^.ipv4.routingTable\""
par "MECHOSTDYN_test1.gNodeB1.cellularNic.pdcpRrc.NRRxPdcpEntity Cid: 134348801" typename "\"simu5g.stack.pdcp_rrc.NRRxPdcpEntity\""
par "MECHOSTDYN_test1.gNodeB1.cellularNic.pdcpRrc.NRRxPdcpEntity Cid: 134348801" outOfOrderDelivery false
par "MECHOSTDYN_test1.gNodeB1.cellularNic.pdcpRrc.NRRxPdcpEntity Cid: 134348801" timeout 0.1s
attr unit s
par "MECHOSTDYN_test1.gNodeB1.cellularNic.pdcpRrc.NRRxPdcpEntity Cid: 134348801" rxWindowSize 4096
par "MECHOSTDYN_test1.gNodeB1.cellularNic.pdcpRrc.NRTxPdcpEntity Cid: 134283265" typename "\"simu5g.stack.pdcp_rrc.NRTxPdcpEntity\""
par MECHOSTDYN_test1.gNodeB1.cellularNic.pdcpRrc typename "\"simu5g.stack.pdcp_rrc.NRPdcpRrcEnb\""
par MECHOSTDYN_test1.gNodeB1.cellularNic.pdcpRrc headerCompressedSize -1B
attr unit B
par MECHOSTDYN_test1.gNodeB1.cellularNic.pdcpRrc conversationalRlc 1
attr enum TM,UM,AM,UNKNOWN_RLC_TYPE
par MECHOSTDYN_test1.gNodeB1.cellularNic.pdcpRrc streamingRlc 1
attr enum TM,UM,AM,UNKNOWN_RLC_TYPE
par MECHOSTDYN_test1.gNodeB1.cellularNic.pdcpRrc interactiveRlc 1
attr enum TM,UM,AM,UNKNOWN_RLC_TYPE
par MECHOSTDYN_test1.gNodeB1.cellularNic.pdcpRrc backgroundRlc 1
attr enum TM,UM,AM,UNKNOWN_RLC_TYPE
scalar MECHOSTDYN_test1.gNodeB1.cellularNic.pdcpRrc sentPacketToLowerLayer:count 2
attr interpolationmode none
attr source sentPacketToLowerLayer
scalar MECHOSTDYN_test1.gNodeB1.cellularNic.pdcpRrc sentPacketToLowerLayer:sum(packetBytes) 2050
attr interpolationmode none
attr source sentPacketToLowerLayer
scalar MECHOSTDYN_test1.gNodeB1.cellularNic.pdcpRrc sentPacketToUpperLayer:count 2
attr interpolationmode none
attr source sentPacketToUpperLayer
scalar MECHOSTDYN_test1.gNodeB1.cellularNic.pdcpRrc sentPacketToUpperLayer:sum(packetBytes) 2048
attr interpolationmode none
attr source sentPacketToUpperLayer
scalar MECHOSTDYN_test1.gNodeB1.cellularNic.pdcpRrc receivedPacketFromLowerLayer:count 2
attr interpolationmode none
attr source receivedPacketFromLowerLayer
scalar MECHOSTDYN_test1.gNodeB1.cellularNic.pdcpRrc receivedPacketFromLowerLayer:sum(packetBytes) 2050
attr interpolationmode none
attr source receivedPacketFromLowerLayer
scalar MECHOSTDYN_test1.gNodeB1.cellularNic.pdcpRrc receivedPacketFromUpperLayer:count 2
attr interpolationmode none
attr source receivedPacketFromUpperLayer
scalar MECHOSTDYN_test1.gNodeB1.cellularNic.pdcpRrc receivedPacketFromUpperLayer:sum(packetBytes) 2048
attr interpolationmode none
attr source receivedPacketFromUpperLayer
par MECHOSTDYN_test1.gNodeB1.cellularNic.rlc.tm typename "\"simu5g.stack.rlc.LteRlcTm\""
par MECHOSTDYN_test1.gNodeB1.cellularNic.rlc.tm queueSize 2097152B
attr unit B
scalar MECHOSTDYN_test1.gNodeB1.cellularNic.rlc.tm rlcPacketLossDl:mean -nan
attr source rlcPacketLossDl
attr title "rlc Packet Loss, mean"
attr unit ""
scalar MECHOSTDYN_test1.gNodeB1.cellularNic.rlc.tm rlcPacketLossDl:sum 0
attr source rlcPacketLossDl
attr title "rlc Packet Loss, sum"
attr unit ""
scalar MECHOSTDYN_test1.gNodeB1.cellularNic.rlc.tm rlcPacketLossUl:mean -nan
attr source rlcPacketLossUl
attr title "rlc Packet Loss, mean"
attr unit ""
scalar MECHOSTDYN_test1.gNodeB1.cellularNic.rlc.tm rlcPacketLossUl:sum 0
attr source rlcPacketLossUl
attr title "rlc Packet Loss, sum"
attr unit ""
scalar MECHOSTDYN_test1.gNodeB1.cellularNic.rlc.tm sentPacketToLowerLayer:count 0
attr interpolationmode none
attr source sentPacketToLowerLayer
scalar MECHOSTDYN_test1.gNodeB1.cellularNic.rlc.tm sentPacketToLowerLayer:sum(packetBytes) 0
attr interpolationmode none
attr source sentPacketToLowerLayer
scalar MECHOSTDYN_test1.gNodeB1.cellularNic.rlc.tm sentPacketToUpperLayer:count 0
attr interpolationmode none
attr source sentPacketToUpperLayer
scalar MECHOSTDYN_test1.gNodeB1.cellularNic.rlc.tm sentPacketToUpperLayer:sum(packetBytes) 0
attr interpolationmode none
attr source sentPacketToUpperLayer
scalar MECHOSTDYN_test1.gNodeB1.cellularNic.rlc.tm receivedPacketFromLowerLayer:count 0
attr interpolationmode none
attr source receivedPacketFromLowerLayer
scalar MECHOSTDYN_test1.gNodeB1.cellularNic.rlc.tm receivedPacketFromLowerLayer:sum(packetBytes) 0
attr interpolationmode none
attr source receivedPacketFromLowerLayer
scalar MECHOSTDYN_test1.gNodeB1.cellularNic.rlc.tm receivedPacketFromUpperLayer:count 0
attr interpolationmode none
attr source receivedPacketFromUpperLayer
scalar MECHOSTDYN_test1.gNodeB1.cellularNic.rlc.tm receivedPacketFromUpperLayer:sum(packetBytes) 0
attr interpolationmode none
attr source receivedPacketFromUpperLayer
par MECHOSTDYN_test1.gNodeB1.cellularNic.rlc.um typename "\"simu5g.stack.rlc.LteRlcUmD2D\""
par MECHOSTDYN_test1.gNodeB1.cellularNic.rlc.um queueSize 2097152B
attr unit B
par MECHOSTDYN_test1.gNodeB1.cellularNic.rlc.um mapAllLcidsToSingleBearer false
scalar MECHOSTDYN_test1.gNodeB1.cellularNic.rlc.um rlcPduPacketLossD2D:mean -nan
attr source rlcPduPacketLossD2D
attr title "rlc Packet Loss, mean"
attr unit ""
scalar MECHOSTDYN_test1.gNodeB1.cellularNic.rlc.um rlcPduThroughputD2D:mean -nan
attr source rlcPduThroughputD2D
attr title "Throughput at the rlc layer D2D, mean"
attr unit Bps
scalar MECHOSTDYN_test1.gNodeB1.cellularNic.rlc.um rlcPduDelayD2D:mean -nan
attr source rlcPduDelayD2D
attr title "Delay at the rlc layer D2D, mean"
attr unit s
scalar MECHOSTDYN_test1.gNodeB1.cellularNic.rlc.um rlcCellThroughputD2D:mean -nan
attr source rlcCellThroughputD2D
attr title "Cell Throughput at the rlc layer D2D, mean"
attr unit Bps
scalar MECHOSTDYN_test1.gNodeB1.cellularNic.rlc.um rlcCellPacketLossD2D:mean -nan
attr source rlcCellPacketLossD2D
attr title "rlc Cell Packet Loss, mean"
attr unit ""
scalar MECHOSTDYN_test1.gNodeB1.cellularNic.rlc.um rlcPacketLossD2D:mean -nan
attr source rlcPacketLossD2D
attr title "rlc Packet Loss, mean"
attr unit ""
scalar MECHOSTDYN_test1.gNodeB1.cellularNic.rlc.um rlcThroughputD2D:mean -nan
attr source rlcThroughputD2D
attr title "Throughput at the rlc layer D2D, mean"
attr unit Bps
scalar MECHOSTDYN_test1.gNodeB1.cellularNic.rlc.um rlcDelayD2D:mean -nan
attr source rlcDelayD2D
attr title "Delay at the rlc layer D2D, mean"
attr unit s
scalar MECHOSTDYN_test1.gNodeB1.cellularNic.rlc.um rlcPduPacketLossDl:mean -nan
attr source rlcPduPacketLossDl
attr title "rlc Packet Loss, mean"
attr unit ""
scalar MECHOSTDYN_test1.gNodeB1.cellularNic.rlc.um rlcPduPacketLossUl:mean -nan
attr source rlcPduPacketLossUl
attr title "rlc Packet Loss, mean"
attr unit ""
scalar MECHOSTDYN_test1.gNodeB1.cellularNic.rlc.um rlcPduThroughputUl:mean -nan
attr source rlcPduThroughputUl
attr title "Throughput at the rlc layer UL, mean"
attr unit Bps
scalar MECHOSTDYN_test1.gNodeB1.cellularNic.rlc.um rlcPduDelayUl:mean -nan
attr source rlcPduDelayUl
attr title "Delay at the rlc layer UL, mean"
attr unit s
scalar MECHOSTDYN_test1.gNodeB1.cellularNic.rlc.um rlcPduThroughputDl:mean -nan
attr source rlcPduThroughputDl
attr title "Throughput at the rlc layer DL, mean"
attr unit Bps
scalar MECHOSTDYN_test1.gNodeB1.cellularNic.rlc.um rlcPduDelayDl:mean -nan
attr source rlcPduDelayDl
attr title "Delay at the rlc layer UL, mean"
attr unit s
scalar MECHOSTDYN_test1.gNodeB1.cellularNic.rlc.um rlcCellPacketLossUl:mean 0
attr source rlcCellPacketLossUl
attr title "rlc Cell Packet Loss, mean"
attr unit ""
scalar MECHOSTDYN_test1.gNodeB1.cellularNic.rlc.um rlcCellPacketLossDl:mean 0
attr source rlcCellPacketLossDl
attr title "rlc Cell Packet Loss, mean"
attr unit ""
scalar MECHOSTDYN_test1.gNodeB1.cellularNic.rlc.um rlcCellThroughputDl:mean 3732.1951219512
attr source rlcCellThroughputDl
attr title "Cell Throughput at the rlc layer DL, mean"
attr unit Bps
scalar MECHOSTDYN_test1.gNodeB1.cellularNic.rlc.um rlcCellThroughputUl:mean 1740.6862745098
attr source rlcCellThroughputUl
attr title "Cell Throughput at the rlc layer UL, mean"
attr unit Bps
scalar MECHOSTDYN_test1.gNodeB1.cellularNic.rlc.um rlcPacketLossTotal:mean -nan
attr source rlcPacketLossTotal
attr title "rlc Packet Loss, mean"
attr unit ""
scalar MECHOSTDYN_test1.gNodeB1.cellularNic.rlc.um rlcThroughputUl:mean -nan
attr source rlcThroughputUl
attr title "Throughput at the rlc layer UL, mean"
attr unit Bps
scalar MECHOSTDYN_test1.gNodeB1.cellularNic.rlc.um rlcDelayUl:mean -nan
attr source rlcDelayUl
attr title "Delay at the rlc layer UL, mean"
attr unit s
scalar MECHOSTDYN_test1.gNodeB1.cellularNic.rlc.um rlcThroughputDl:mean -nan
attr source rlcThroughputDl
attr title "Throughput at the rlc layer DL, mean"
attr unit Bps
scalar MECHOSTDYN_test1.gNodeB1.cellularNic.rlc.um rlcDelayDl:mean -nan
attr source rlcDelayDl
attr title "Delay at the rlc layer DL, mean"
attr unit s
scalar MECHOSTDYN_test1.gNodeB1.cellularNic.rlc.um rlcPacketLossDl:mean 0
attr source rlcPacketLossDl
attr title "rlc Packet Loss, mean"
attr unit ""
scalar MECHOSTDYN_test1.gNodeB1.cellularNic.rlc.um rlcPacketLossDl:sum 0
attr source rlcPacketLossDl
attr title "rlc Packet Loss, sum"
attr unit ""
scalar MECHOSTDYN_test1.gNodeB1.cellularNic.rlc.um rlcPacketLossUl:mean -nan
attr source rlcPacketLossUl
attr title "rlc Packet Loss, mean"
attr unit ""
scalar MECHOSTDYN_test1.gNodeB1.cellularNic.rlc.um rlcPacketLossUl:sum 0
attr source rlcPacketLossUl
attr title "rlc Packet Loss, sum"
attr unit ""
scalar MECHOSTDYN_test1.gNodeB1.cellularNic.rlc.um sentPacketToLowerLayer:count 1
attr interpolationmode none
attr source sentPacketToLowerLayer
scalar MECHOSTDYN_test1.gNodeB1.cellularNic.rlc.um sentPacketToLowerLayer:sum(packetBytes) 2052
attr interpolationmode none
attr source sentPacketToLowerLayer
scalar MECHOSTDYN_test1.gNodeB1.cellularNic.rlc.um sentPacketToUpperLayer:count 2
attr interpolationmode none
attr source sentPacketToUpperLayer
scalar MECHOSTDYN_test1.gNodeB1.cellularNic.rlc.um sentPacketToUpperLayer:sum(packetBytes) 2050
attr interpolationmode none
attr source sentPacketToUpperLayer
scalar MECHOSTDYN_test1.gNodeB1.cellularNic.rlc.um receivedPacketFromLowerLayer:count 2
attr interpolationmode none
attr source receivedPacketFromLowerLayer
scalar MECHOSTDYN_test1.gNodeB1.cellularNic.rlc.um receivedPacketFromLowerLayer:sum(packetBytes) 2054
attr interpolationmode none
attr source receivedPacketFromLowerLayer
scalar MECHOSTDYN_test1.gNodeB1.cellularNic.rlc.um receivedPacketFromUpperLayer:count 2
attr interpolationmode none
attr source receivedPacketFromUpperLayer
scalar MECHOSTDYN_test1.gNodeB1.cellularNic.rlc.um receivedPacketFromUpperLayer:sum(packetBytes) 2050
attr interpolationmode none
attr source receivedPacketFromUpperLayer
par MECHOSTDYN_test1.gNodeB1.cellularNic.rlc.am typename "\"simu5g.stack.rlc.LteRlcAm\""
scalar MECHOSTDYN_test1.gNodeB1.cellularNic.rlc.am rlcPduPacketLossDl:mean -nan
attr source rlcPduPacketLossDl
attr title "rlc Packet Loss, mean"
attr unit ""
scalar MECHOSTDYN_test1.gNodeB1.cellularNic.rlc.am rlcPduPacketLossUl:mean -nan
attr source rlcPduPacketLossUl
attr title "rlc Packet Loss, mean"
attr unit ""
scalar MECHOSTDYN_test1.gNodeB1.cellularNic.rlc.am rlcPduThroughputUl:mean -nan
attr source rlcPduThroughputUl
attr title "Throughput at the rlc layer UL, mean"
attr unit Bps
scalar MECHOSTDYN_test1.gNodeB1.cellularNic.rlc.am rlcPduDelayUl:mean -nan
attr source rlcPduDelayUl
attr title "Delay at the rlc layer UL, mean"
attr unit s
scalar MECHOSTDYN_test1.gNodeB1.cellularNic.rlc.am rlcPduThroughputDl:mean -nan
attr source rlcPduThroughputDl
attr title "Throughput at the rlc layer DL, mean"
attr unit Bps
scalar MECHOSTDYN_test1.gNodeB1.cellularNic.rlc.am rlcPduDelayDl:mean -nan
attr source rlcPduDelayDl
attr title "Delay at the rlc layer UL, mean"
attr unit s
scalar MECHOSTDYN_test1.gNodeB1.cellularNic.rlc.am rlcCellPacketLossUl:mean -nan
attr source rlcCellPacketLossUl
attr title "rlc Cell Packet Loss, mean"
attr unit ""
scalar MECHOSTDYN_test1.gNodeB1.cellularNic.rlc.am rlcCellPacketLossDl:mean -nan
attr source rlcCellPacketLossDl
attr title "rlc Cell Packet Loss, mean"
attr unit ""
scalar MECHOSTDYN_test1.gNodeB1.cellularNic.rlc.am rlcCellThroughputDl:mean -nan
attr source rlcCellThroughputDl
attr title "Cell Throughput at the rlc layer DL, mean"
attr unit Bps
scalar MECHOSTDYN_test1.gNodeB1.cellularNic.rlc.am rlcCellThroughputUl:mean -nan
attr source rlcCellThroughputUl
attr title "Cell Throughput at the rlc layer UL, mean"
attr unit Bps
scalar MECHOSTDYN_test1.gNodeB1.cellularNic.rlc.am rlcPacketLossTotal:mean -nan
attr source rlcPacketLossTotal
attr title "rlc Packet Loss, mean"
attr unit ""
scalar MECHOSTDYN_test1.gNodeB1.cellularNic.rlc.am rlcThroughputUl:mean -nan
attr source rlcThroughputUl
attr title "Throughput at the rlc layer UL, mean"
attr unit Bps
scalar MECHOSTDYN_test1.gNodeB1.cellularNic.rlc.am rlcDelayUl:mean -nan
attr source rlcDelayUl
attr title "Delay at the rlc layer UL, mean"
attr unit s
scalar MECHOSTDYN_test1.gNodeB1.cellularNic.rlc.am rlcThroughputDl:mean -nan
attr source rlcThroughputDl
attr title "Throughput at the rlc layer DL, mean"
attr unit Bps
scalar MECHOSTDYN_test1.gNodeB1.cellularNic.rlc.am rlcDelayDl:mean -nan
attr source rlcDelayDl
attr title "Delay at the rlc layer UL, mean"
attr unit s
scalar MECHOSTDYN_test1.gNodeB1.cellularNic.rlc.am rlcPacketLossDl:mean -nan
attr source rlcPacketLossDl
attr title "rlc Packet Loss, mean"
attr unit ""
scalar MECHOSTDYN_test1.gNodeB1.cellularNic.rlc.am rlcPacketLossUl:mean -nan
attr source rlcPacketLossUl
attr title "rlc Packet Loss, mean"
attr unit ""
par MECHOSTDYN_test1.gNodeB1.cellularNic.rlc.mux typename "\"simu5g.stack.rlc.LteRlcMux\""
par "MECHOSTDYN_test1.gNodeB1.cellularNic.rlc.UmRxEntity Lcid: 1" typename "\"simu5g.stack.rlc.UmRxEntity\""
par "MECHOSTDYN_test1.gNodeB1.cellularNic.rlc.UmRxEntity Lcid: 1" timeout 1s
attr unit s
par "MECHOSTDYN_test1.gNodeB1.cellularNic.rlc.UmRxEntity Lcid: 1" rxWindowSize 16
par "MECHOSTDYN_test1.gNodeB1.cellularNic.rlc.UmTxEntity Lcid: 1" typename "\"simu5g.stack.rlc.UmTxEntity\""
par "MECHOSTDYN_test1.gNodeB1.cellularNic.rlc.UmTxEntity Lcid: 1" fragmentSize 30B
attr unit B
par MECHOSTDYN_test1.gNodeB1.cellularNic.rlc typename "\"simu5g.stack.rlc.LteRlc\""
par MECHOSTDYN_test1.gNodeB1.cellularNic.rlc LteRlcUmType "\"LteRlcUm\""
par MECHOSTDYN_test1.gNodeB1.cellularNic.rlc d2dCapable true
par MECHOSTDYN_test1.gNodeB1.cellularNic.rlc umType "\"LteRlcUmD2D\""
par MECHOSTDYN_test1.gNodeB1.cellularNic.mac typename "\"simu5g.stack.mac.NRMacGnb\""
par MECHOSTDYN_test1.gNodeB1.cellularNic.mac interfaceTableModule "\"MECHOSTDYN_test1.gNodeB1.interfaceTable\""
par MECHOSTDYN_test1.gNodeB1.cellularNic.mac queueSize 2097152B
attr unit B
par MECHOSTDYN_test1.gNodeB1.cellularNic.mac muMimo true
par MECHOSTDYN_test1.gNodeB1.cellularNic.mac harqProcesses 8
par MECHOSTDYN_test1.gNodeB1.cellularNic.mac maxHarqRtx 3
par MECHOSTDYN_test1.gNodeB1.cellularNic.mac harqFbEvaluationTimer 4
par MECHOSTDYN_test1.gNodeB1.cellularNic.mac statDisplay false
par MECHOSTDYN_test1.gNodeB1.cellularNic.mac amcType "\"NRAmc\""
par MECHOSTDYN_test1.gNodeB1.cellularNic.mac amcMode "\"AUTO\""
par MECHOSTDYN_test1.gNodeB1.cellularNic.mac muMimoMinDistance 50
par MECHOSTDYN_test1.gNodeB1.cellularNic.mac rbAllocationType "\"localized\""
par MECHOSTDYN_test1.gNodeB1.cellularNic.mac summaryLowerBound 0.005s
attr unit s
par MECHOSTDYN_test1.gNodeB1.cellularNic.mac summaryUpperBound 0.02s
attr unit s
par MECHOSTDYN_test1.gNodeB1.cellularNic.mac fbhbCapacityDl 5
par MECHOSTDYN_test1.gNodeB1.cellularNic.mac fbhbCapacityUl 5
par MECHOSTDYN_test1.gNodeB1.cellularNic.mac fbhbCapacityD2D 5
par MECHOSTDYN_test1.gNodeB1.cellularNic.mac pmiWeight 0
par MECHOSTDYN_test1.gNodeB1.cellularNic.mac cqiWeight 0
par MECHOSTDYN_test1.gNodeB1.cellularNic.mac kCqi 0
par MECHOSTDYN_test1.gNodeB1.cellularNic.mac eNodeBCount 0
par MECHOSTDYN_test1.gNodeB1.cellularNic.mac schedulingDisciplineDl "\"MAXCI\""
par MECHOSTDYN_test1.gNodeB1.cellularNic.mac schedulingDisciplineUl "\"MAXCI\""
par MECHOSTDYN_test1.gNodeB1.cellularNic.mac grantTypeConversationalDl "\"FITALL\""
par MECHOSTDYN_test1.gNodeB1.cellularNic.mac grantTypeStreamingDl "\"FITALL\""
par MECHOSTDYN_test1.gNodeB1.cellularNic.mac grantTypeInteractiveDl "\"FITALL\""
par MECHOSTDYN_test1.gNodeB1.cellularNic.mac grantTypeBackgroundDl "\"FITALL\""
par MECHOSTDYN_test1.gNodeB1.cellularNic.mac grantSizeConversationalDl -1
par MECHOSTDYN_test1.gNodeB1.cellularNic.mac grantSizeStreamingDl -1
par MECHOSTDYN_test1.gNodeB1.cellularNic.mac grantSizeInteractiveDl -1
par MECHOSTDYN_test1.gNodeB1.cellularNic.mac grantSizeBackgroundDl -1
par MECHOSTDYN_test1.gNodeB1.cellularNic.mac grantTypeConversationalUl "\"FITALL\""
par MECHOSTDYN_test1.gNodeB1.cellularNic.mac grantTypeStreamingUl "\"FITALL\""
par MECHOSTDYN_test1.gNodeB1.cellularNic.mac grantTypeInteractiveUl "\"FITALL\""
par MECHOSTDYN_test1.gNodeB1.cellularNic.mac grantTypeBackgroundUl "\"FITALL\""
par MECHOSTDYN_test1.gNodeB1.cellularNic.mac grantSizeConversationalUl -1
par MECHOSTDYN_test1.gNodeB1.cellularNic.mac grantSizeStreamingUl -1
par MECHOSTDYN_test1.gNodeB1.cellularNic.mac grantSizeInteractiveUl -1
par MECHOSTDYN_test1.gNodeB1.cellularNic.mac grantSizeBackgroundUl -1
par MECHOSTDYN_test1.gNodeB1.cellularNic.mac pfAlpha 0.95
par MECHOSTDYN_test1.gNodeB1.cellularNic.mac lteAallocationRbsDl 1
par MECHOSTDYN_test1.gNodeB1.cellularNic.mac lteAhistorySizeDL 20
par MECHOSTDYN_test1.gNodeB1.cellularNic.mac lteAgainHistoryThCONVERSATIONALDL 15
par MECHOSTDYN_test1.gNodeB1.cellularNic.mac lteAgainHistoryThSTREAMINGDL 15
par MECHOSTDYN_test1.gNodeB1.cellularNic.mac lteAgainHistoryThINTERACTIVEDL 15
par MECHOSTDYN_test1.gNodeB1.cellularNic.mac lteAgainHistoryThBACKGROUNDDL 15
par MECHOSTDYN_test1.gNodeB1.cellularNic.mac lteAallocationRbsUl 1
par MECHOSTDYN_test1.gNodeB1.cellularNic.mac lteAhistorySizeUL 20
par MECHOSTDYN_test1.gNodeB1.cellularNic.mac lteAgainHistoryThUL 5
par MECHOSTDYN_test1.gNodeB1.cellularNic.mac lteAdeadlineCONVERSATIONALDL 0.2s
attr unit s
par MECHOSTDYN_test1.gNodeB1.cellularNic.mac lteAdeadlineSTREAMINGDL 1s
attr unit s
par MECHOSTDYN_test1.gNodeB1.cellularNic.mac lteAdeadlineINTERACTIVEDL 0.05s
attr unit s
par MECHOSTDYN_test1.gNodeB1.cellularNic.mac lteAdeadlineBACKGROUNDDL -0.001s
attr unit s
par MECHOSTDYN_test1.gNodeB1.cellularNic.mac lteAslackTermCONVERSATIONALDL 0.05s
attr unit s
par MECHOSTDYN_test1.gNodeB1.cellularNic.mac lteAslackTermSTREAMINGDL 0.1s
attr unit s
par MECHOSTDYN_test1.gNodeB1.cellularNic.mac lteAslackTermINTERACTIVEDL 0.01s
attr unit s
par MECHOSTDYN_test1.gNodeB1.cellularNic.mac lteAslackTermBACKGROUNDDL 0s
attr unit s
par MECHOSTDYN_test1.gNodeB1.cellularNic.mac lteAmaxUrgentBurstCONVERSATIONALDL 0byte
attr unit byte
par MECHOSTDYN_test1.gNodeB1.cellularNic.mac lteAmaxUrgentBurstSTREAMINGDL 0byte
attr unit byte
par MECHOSTDYN_test1.gNodeB1.cellularNic.mac lteAmaxUrgentBurstINTERACTIVEDL 0byte
attr unit byte
par MECHOSTDYN_test1.gNodeB1.cellularNic.mac lteAmaxUrgentBurstBACKGROUNDDL 200byte
attr unit byte
par MECHOSTDYN_test1.gNodeB1.cellularNic.mac lteAmaxFairnessBurstCONVERSATIONALDL 0byte
attr unit byte
par MECHOSTDYN_test1.gNodeB1.cellularNic.mac lteAmaxFairnessBurstSTREAMINGDL 0byte
attr unit byte
par MECHOSTDYN_test1.gNodeB1.cellularNic.mac lteAmaxFairnessBurstINTERACTIVEDL 0byte
attr unit byte
par MECHOSTDYN_test1.gNodeB1.cellularNic.mac lteAmaxFairnessBurstBACKGROUNDDL 200byte
attr unit byte
par MECHOSTDYN_test1.gNodeB1.cellularNic.mac lteAdeadlineCONVERSATIONALUL 0.25s
attr unit s
par MECHOSTDYN_test1.gNodeB1.cellularNic.mac lteAdeadlineSTREAMINGUL 1.5s
attr unit s
par MECHOSTDYN_test1.gNodeB1.cellularNic.mac lteAdeadlineINTERACTIVEUL 2.5s
attr unit s
par MECHOSTDYN_test1.gNodeB1.cellularNic.mac lteAdeadlineBACKGROUNDUL 0.25s
attr unit s
par MECHOSTDYN_test1.gNodeB1.cellularNic.mac lteAslackTermCONVERSATIONALUL 0.05s
attr unit s
par MECHOSTDYN_test1.gNodeB1.cellularNic.mac lteAslackTermSTREAMINGUL 0.5s
attr unit s
par MECHOSTDYN_test1.gNodeB1.cellularNic.mac lteAslackTermINTERACTIVEUL 0.5s
attr unit s
par MECHOSTDYN_test1.gNodeB1.cellularNic.mac lteAslackTermBACKGROUNDUL 0s
attr unit s
par MECHOSTDYN_test1.gNodeB1.cellularNic.mac lteAmaxBurstCONVERSATIONALUL 0byte
attr unit byte
par MECHOSTDYN_test1.gNodeB1.cellularNic.mac lteAmaxBurstSTREAMINGUL 0byte
attr unit byte
par MECHOSTDYN_test1.gNodeB1.cellularNic.mac lteAmaxBurstINTERACTIVEUL 0byte
attr unit byte
par MECHOSTDYN_test1.gNodeB1.cellularNic.mac lteAmaxBurstBACKGROUNDUL 0byte
attr unit byte
par MECHOSTDYN_test1.gNodeB1.cellularNic.mac pfTmsAwareDL false
par MECHOSTDYN_test1.gNodeB1.cellularNic.mac pfTmsAwareUL false
par MECHOSTDYN_test1.gNodeB1.cellularNic.mac zeroLevelMBSFNDL 260W
attr unit W
par MECHOSTDYN_test1.gNodeB1.cellularNic.mac zeroLevelMBSFNUL 260W
attr unit W
par MECHOSTDYN_test1.gNodeB1.cellularNic.mac idleLevelMBSFNDL 150W
attr unit W
par MECHOSTDYN_test1.gNodeB1.cellularNic.mac idleLevelMBSFNUL 150W
attr unit W
par MECHOSTDYN_test1.gNodeB1.cellularNic.mac powerUnitMBSFNDL 3.76W
attr unit W
par MECHOSTDYN_test1.gNodeB1.cellularNic.mac powerUnitMBSFNUL 3.76W
attr unit W
par MECHOSTDYN_test1.gNodeB1.cellularNic.mac maxPowerMBSFNDL 448W
attr unit W
par MECHOSTDYN_test1.gNodeB1.cellularNic.mac maxPowerMBSFNUL 448W
attr unit W
par MECHOSTDYN_test1.gNodeB1.cellularNic.mac zeroLevelPAGINGDL 260W
attr unit W
par MECHOSTDYN_test1.gNodeB1.cellularNic.mac zeroLevelPAGINGUL 260W
attr unit W
par MECHOSTDYN_test1.gNodeB1.cellularNic.mac idleLevelPAGINGDL 150W
attr unit W
par MECHOSTDYN_test1.gNodeB1.cellularNic.mac idleLevelPAGINGUL 150W
attr unit W
par MECHOSTDYN_test1.gNodeB1.cellularNic.mac powerUnitPAGINGDL 3.76W
attr unit W
par MECHOSTDYN_test1.gNodeB1.cellularNic.mac powerUnitPAGINGUL 3.76W
attr unit W
par MECHOSTDYN_test1.gNodeB1.cellularNic.mac maxPowerPAGINGDL 448W
attr unit W
par MECHOSTDYN_test1.gNodeB1.cellularNic.mac maxPowerPAGINGUL 448W
attr unit W
par MECHOSTDYN_test1.gNodeB1.cellularNic.mac zeroLevelNORMAL_FRAME_TYPEDL 260W
attr unit W
par MECHOSTDYN_test1.gNodeB1.cellularNic.mac zeroLevelNORMAL_FRAME_TYPEUL 260W
attr unit W
par MECHOSTDYN_test1.gNodeB1.cellularNic.mac idleLevelNORMAL_FRAME_TYPEDL 150W
attr unit W
par MECHOSTDYN_test1.gNodeB1.cellularNic.mac idleLevelNORMAL_FRAME_TYPEUL 150W
attr unit W
par MECHOSTDYN_test1.gNodeB1.cellularNic.mac powerUnitNORMAL_FRAME_TYPEDL 3.76W
attr unit W
par MECHOSTDYN_test1.gNodeB1.cellularNic.mac powerUnitNORMAL_FRAME_TYPEUL 3.76W
attr unit W
par MECHOSTDYN_test1.gNodeB1.cellularNic.mac maxPowerNORMAL_FRAME_TYPEDL 448W
attr unit W
par MECHOSTDYN_test1.gNodeB1.cellularNic.mac maxPowerNORMAL_FRAME_TYPEUL 448W
attr unit W
par MECHOSTDYN_test1.gNodeB1.cellularNic.mac zeroLevelBROADCASTDL 260W
attr unit W
par MECHOSTDYN_test1.gNodeB1.cellularNic.mac zeroLevelBROADCASTUL 260W
attr unit W
par MECHOSTDYN_test1.gNodeB1.cellularNic.mac idleLevelBROADCASTDL 150W
attr unit W
par MECHOSTDYN_test1.gNodeB1.cellularNic.mac idleLevelBROADCASTUL 150W
attr unit W
par MECHOSTDYN_test1.gNodeB1.cellularNic.mac powerUnitBROADCASTDL 3.76W
attr unit W
par MECHOSTDYN_test1.gNodeB1.cellularNic.mac powerUnitBROADCASTUL 3.76W
attr unit W
par MECHOSTDYN_test1.gNodeB1.cellularNic.mac maxPowerBROADCASTDL 448W
attr unit W
par MECHOSTDYN_test1.gNodeB1.cellularNic.mac maxPowerBROADCASTUL 448W
attr unit W
par MECHOSTDYN_test1.gNodeB1.cellularNic.mac zeroLevelSYNCRODL 260W
attr unit W
par MECHOSTDYN_test1.gNodeB1.cellularNic.mac zeroLevelSYNCROUL 260W
attr unit W
par MECHOSTDYN_test1.gNodeB1.cellularNic.mac idleLevelSYNCRODL 150W
attr unit W
par MECHOSTDYN_test1.gNodeB1.cellularNic.mac idleLevelSYNCROUL 150W
attr unit W
par MECHOSTDYN_test1.gNodeB1.cellularNic.mac powerUnitSYNCRODL 3.76W
attr unit W
par MECHOSTDYN_test1.gNodeB1.cellularNic.mac powerUnitSYNCROUL 3.76W
attr unit W
par MECHOSTDYN_test1.gNodeB1.cellularNic.mac maxPowerSYNCRODL 448W
attr unit W
par MECHOSTDYN_test1.gNodeB1.cellularNic.mac maxPowerSYNCROUL 448W
attr unit W
par MECHOSTDYN_test1.gNodeB1.cellularNic.mac prfFixedSYNCRO 5.543W
attr unit W
par MECHOSTDYN_test1.gNodeB1.cellularNic.mac prfRBSYNCRO 0.689W
attr unit W
par MECHOSTDYN_test1.gNodeB1.cellularNic.mac prfFixedMBSFN 4.4444W
attr unit W
par MECHOSTDYN_test1.gNodeB1.cellularNic.mac prfRBMBSFN 0.711W
attr unit W
par MECHOSTDYN_test1.gNodeB1.cellularNic.mac prfFixedNORMAL_FRAME_TYPE 3.81W
attr unit W
par MECHOSTDYN_test1.gNodeB1.cellularNic.mac prfRBNORMAL_FRAME_TYPE 0.724W
attr unit W
par MECHOSTDYN_test1.gNodeB1.cellularNic.mac prfFixedPAGING 3.81W
attr unit W
par MECHOSTDYN_test1.gNodeB1.cellularNic.mac prfRBPAGING 0.724W
attr unit W
par MECHOSTDYN_test1.gNodeB1.cellularNic.mac prfFixedBROADCAST 4.4W
attr unit W
par MECHOSTDYN_test1.gNodeB1.cellularNic.mac prfRBBROADCAST 0.712W
attr unit W
par MECHOSTDYN_test1.gNodeB1.cellularNic.mac pilotMode "\"ROBUST_CQI\""
par MECHOSTDYN_test1.gNodeB1.cellularNic.mac usePreconfiguredTxParams false
par MECHOSTDYN_test1.gNodeB1.cellularNic.mac d2dCqi 7
par MECHOSTDYN_test1.gNodeB1.cellularNic.mac reuseD2D false
par MECHOSTDYN_test1.gNodeB1.cellularNic.mac reuseD2DMulti false
par MECHOSTDYN_test1.gNodeB1.cellularNic.mac conflictGraphUpdatePeriod 1s
attr unit s
par MECHOSTDYN_test1.gNodeB1.cellularNic.mac conflictGraphThreshold 90
par MECHOSTDYN_test1.gNodeB1.cellularNic.mac conflictGraphD2DInterferenceRadius -1m
attr unit m
par MECHOSTDYN_test1.gNodeB1.cellularNic.mac conflictGraphD2DMultiTxRadius -1m
attr unit m
par MECHOSTDYN_test1.gNodeB1.cellularNic.mac conflictGraphD2DMultiInterferenceRadius -1m
attr unit m
par MECHOSTDYN_test1.gNodeB1.cellularNic.mac msHarqInterrupt true
par MECHOSTDYN_test1.gNodeB1.cellularNic.mac msClearRlcBuffer true
scalar MECHOSTDYN_test1.gNodeB1.cellularNic.mac macCellPacketLossD2D:mean -nan
attr source macCellPacketLossD2D
attr title "Mac Cell Packet Loss D2D, mean"
attr unit ""
scalar MECHOSTDYN_test1.gNodeB1.cellularNic.mac macCellThroughputD2D:mean -nan
attr source macCellThroughputD2D
attr title "Cell Throughput at the MAC layer D2D, mean"
attr unit Bps
scalar MECHOSTDYN_test1.gNodeB1.cellularNic.mac avgServedBlocksUl:mean 0.0276008492569
attr source avgServedBlocksUl
attr title "LTE Avg Served Blocks Ul, mean"
attr unit blocks
scalar MECHOSTDYN_test1.gNodeB1.cellularNic.mac avgServedBlocksDl:mean 0.010615711252654
attr source avgServedBlocksDl
attr title "LTE Avg Served Blocks Dl, mean"
attr unit blocks
scalar MECHOSTDYN_test1.gNodeB1.cellularNic.mac cellBlocksUtilizationUl:mean -nan
attr source cellBlocksUtilizationUl
attr title "LTE Cell Blocks Utilization Ul, mean"
attr unit blocks
scalar MECHOSTDYN_test1.gNodeB1.cellularNic.mac cellBlocksUtilizationDl:mean -nan
attr source cellBlocksUtilizationDl
attr title "LTE Cell Blocks Utilization Dl, mean"
attr unit blocks
scalar MECHOSTDYN_test1.gNodeB1.cellularNic.mac measuredItbs:mean -nan
attr source measuredItbs
attr title "TBS index, mean"
attr unit ""
scalar MECHOSTDYN_test1.gNodeB1.cellularNic.mac harqErrorRate_4th_Dl:mean -nan
attr source harqErrorRate_4th_Dl
attr title "Harq Error Rate Dl, mean"
attr unit ""
scalar MECHOSTDYN_test1.gNodeB1.cellularNic.mac harqErrorRate_4th_Ul:mean -nan
attr source harqErrorRate_4th_Ul
attr title "Harq Error Rate Ul, mean"
attr unit ""
scalar MECHOSTDYN_test1.gNodeB1.cellularNic.mac harqErrorRate_3rd_Dl:mean -nan
attr source harqErrorRate_3rd_Dl
attr title "Harq Error Rate Dl, mean"
attr unit ""
scalar MECHOSTDYN_test1.gNodeB1.cellularNic.mac harqErrorRate_3rd_Ul:mean -nan
attr source harqErrorRate_3rd_Ul
attr title "Harq Error Rate Ul, mean"
attr unit ""
scalar MECHOSTDYN_test1.gNodeB1.cellularNic.mac harqErrorRate_2nd_Dl:mean -nan
attr source harqErrorRate_2nd_Dl
attr title "Harq Error Rate Dl, mean"
attr unit ""
scalar MECHOSTDYN_test1.gNodeB1.cellularNic.mac harqErrorRate_2nd_Ul:mean -nan
attr source harqErrorRate_2nd_Ul
attr title "Harq Error Rate Ul, mean"
attr unit ""
scalar MECHOSTDYN_test1.gNodeB1.cellularNic.mac harqErrorRate_1st_Dl:mean -nan
attr source harqErrorRate_1st_Dl
attr title "Harq Error Rate Dl, mean"
attr unit ""
scalar MECHOSTDYN_test1.gNodeB1.cellularNic.mac harqErrorRate_1st_Ul:mean -nan
attr source harqErrorRate_1st_Ul
attr title "Harq Error Rate Ul, mean"
attr unit ""
scalar MECHOSTDYN_test1.gNodeB1.cellularNic.mac harqTxAttemptsUl:mean -nan
attr source harqTxAttemptsUl
attr title "Harq Tx Attempts Ul, mean"
attr unit ""
scalar MECHOSTDYN_test1.gNodeB1.cellularNic.mac harqTxAttemptsDl:mean -nan
attr source harqTxAttemptsDl
attr title "Harq Tx Attempts Dl, mean"
attr unit ""
scalar MECHOSTDYN_test1.gNodeB1.cellularNic.mac harqErrorRateDl:mean -nan
attr source harqErrorRateDl
attr title "Harq Error Rate Dl, mean"
attr unit ""
scalar MECHOSTDYN_test1.gNodeB1.cellularNic.mac harqErrorRateUl:mean -nan
attr source harqErrorRateUl
attr title "Harq Error Rate Ul, mean"
attr unit ""
scalar MECHOSTDYN_test1.gNodeB1.cellularNic.mac macBufferOverFlowD2D:mean -nan
attr source macBufferOverFlowD2D
attr title "Mac buffer overflow as function of time, mean"
attr unit Byte/s
scalar MECHOSTDYN_test1.gNodeB1.cellularNic.mac macBufferOverFlowUl:mean -nan
attr source macBufferOverFlowUl
attr title "Mac buffer overflow as function of time, mean"
attr unit Byte/s
scalar MECHOSTDYN_test1.gNodeB1.cellularNic.mac macBufferOverFlowDl:mean -nan
attr source macBufferOverFlowDl
attr title "Mac buffer overflow as function of time, mean"
attr unit Byte/s
scalar MECHOSTDYN_test1.gNodeB1.cellularNic.mac macPacketLossDl:mean -nan
attr source macPacketLossDl
attr title "Mac Packet Loss Dl, mean"
attr unit ""
scalar MECHOSTDYN_test1.gNodeB1.cellularNic.mac macPacketLossUl:mean -nan
attr source macPacketLossUl
attr title "Mac Packet Loss Ul, mean"
attr unit ""
scalar MECHOSTDYN_test1.gNodeB1.cellularNic.mac macCellPacketLossUl:mean 0
attr source macCellPacketLossUl
attr title "Mac Cell Packet Loss Ul, mean"
attr unit ""
scalar MECHOSTDYN_test1.gNodeB1.cellularNic.mac macCellPacketLossDl:mean 0
attr source macCellPacketLossDl
attr title "Mac Cell Packet Loss Dl, mean"
attr unit ""
scalar MECHOSTDYN_test1.gNodeB1.cellularNic.mac macCellThroughputDl:mean 4011.7073170732
attr source macCellThroughputDl
attr title "Cell Throughput at the MAC layer DL, mean"
attr unit Bps
scalar MECHOSTDYN_test1.gNodeB1.cellularNic.mac macCellThroughputUl:mean 1078.7640056022
attr source macCellThroughputUl
attr title "Cell Throughput at the MAC layer UL, mean"
attr unit Bps
scalar MECHOSTDYN_test1.gNodeB1.cellularNic.mac macThroughputUl:mean -nan
attr source macThroughputUl
attr title "Throughput at the MAC layer UL, mean"
attr unit Bps
scalar MECHOSTDYN_test1.gNodeB1.cellularNic.mac macDelayUl:mean -nan
attr source macDelayUl
attr title "Delay at the MAC layer UL, mean"
attr unit s
scalar MECHOSTDYN_test1.gNodeB1.cellularNic.mac macThroughputDl:mean -nan
attr source macThroughputDl
attr title "Throughput at the MAC layer DL, mean"
attr unit Bps
scalar MECHOSTDYN_test1.gNodeB1.cellularNic.mac macDelayDl:mean 0.004
attr source macDelayDl
attr title "Delay at the MAC layer UL, mean"
attr unit s
scalar MECHOSTDYN_test1.gNodeB1.cellularNic.mac sentPacketToLowerLayer:count 8
attr interpolationmode none
attr source sentPacketToLowerLayer
scalar MECHOSTDYN_test1.gNodeB1.cellularNic.mac sentPacketToLowerLayer:sum(packetBytes) 2061
attr interpolationmode none
attr source sentPacketToLowerLayer
scalar MECHOSTDYN_test1.gNodeB1.cellularNic.mac sentPacketToUpperLayer:count 3
attr interpolationmode none
attr source sentPacketToUpperLayer
scalar MECHOSTDYN_test1.gNodeB1.cellularNic.mac sentPacketToUpperLayer:sum(packetBytes) 2055
attr interpolationmode none
attr source sentPacketToUpperLayer
scalar MECHOSTDYN_test1.gNodeB1.cellularNic.mac receivedPacketFromLowerLayer:count 477
attr interpolationmode none
attr source receivedPacketFromLowerLayer
scalar MECHOSTDYN_test1.gNodeB1.cellularNic.mac receivedPacketFromLowerLayer:sum(packetBytes) 4449
attr interpolationmode none
attr source receivedPacketFromLowerLayer
scalar MECHOSTDYN_test1.gNodeB1.cellularNic.mac receivedPacketFromUpperLayer:count 3
attr interpolationmode none
attr source receivedPacketFromUpperLayer
scalar MECHOSTDYN_test1.gNodeB1.cellularNic.mac receivedPacketFromUpperLayer:sum(packetBytes) 4106
attr interpolationmode none
attr source receivedPacketFromUpperLayer
par MECHOSTDYN_test1.gNodeB1.cellularNic.phy typename "\"simu5g.stack.phy.LtePhyEnbD2D\""
par MECHOSTDYN_test1.gNodeB1.cellularNic.phy ueTxPower 26
par MECHOSTDYN_test1.gNodeB1.cellularNic.phy eNodeBTxPower 46
par MECHOSTDYN_test1.gNodeB1.cellularNic.phy microTxPower 30
par MECHOSTDYN_test1.gNodeB1.cellularNic.phy txDirection "\"OMNI\""
par MECHOSTDYN_test1.gNodeB1.cellularNic.phy txAngle 0
par MECHOSTDYN_test1.gNodeB1.cellularNic.phy dynamicCellAssociation false
par MECHOSTDYN_test1.gNodeB1.cellularNic.phy enableHandover false
par MECHOSTDYN_test1.gNodeB1.cellularNic.phy handoverLatency 0.05s
attr unit s
par MECHOSTDYN_test1.gNodeB1.cellularNic.phy enableMulticastD2DRangeCheck false
par MECHOSTDYN_test1.gNodeB1.cellularNic.phy multicastD2DRange 1000m
attr unit m
par MECHOSTDYN_test1.gNodeB1.cellularNic.phy targetBler 0.001
par MECHOSTDYN_test1.gNodeB1.cellularNic.phy lambdaMinTh 0.02
par MECHOSTDYN_test1.gNodeB1.cellularNic.phy lambdaMaxTh 0.2
par MECHOSTDYN_test1.gNodeB1.cellularNic.phy lambdaRatioTh 20
par MECHOSTDYN_test1.gNodeB1.cellularNic.phy enableD2DCqiReporting true
par MECHOSTDYN_test1.gNodeB1.cellularNic.channelModel[0] typename "\"simu5g.stack.phy.ChannelModel.NRChannelModel_3GPP38_901\""
par MECHOSTDYN_test1.gNodeB1.cellularNic.channelModel[0] componentCarrierIndex 0
par MECHOSTDYN_test1.gNodeB1.cellularNic.channelModel[0] shadowing true
par MECHOSTDYN_test1.gNodeB1.cellularNic.channelModel[0] scenario "\"URBAN_MACROCELL\""
par MECHOSTDYN_test1.gNodeB1.cellularNic.channelModel[0] nodeb_height 25
par MECHOSTDYN_test1.gNodeB1.cellularNic.channelModel[0] building_height 20
par MECHOSTDYN_test1.gNodeB1.cellularNic.channelModel[0] inside_building false
par MECHOSTDYN_test1.gNodeB1.cellularNic.channelModel[0] street_wide 20
par MECHOSTDYN_test1.gNodeB1.cellularNic.channelModel[0] ue_height 1.5
par MECHOSTDYN_test1.gNodeB1.cellularNic.channelModel[0] tolerateMaxDistViolation false
par MECHOSTDYN_test1.gNodeB1.cellularNic.channelModel[0] useTorus false
par MECHOSTDYN_test1.gNodeB1.cellularNic.channelModel[0] correlation_distance 50
par MECHOSTDYN_test1.gNodeB1.cellularNic.channelModel[0] targetBler 0.01
par MECHOSTDYN_test1.gNodeB1.cellularNic.channelModel[0] harqReduction 0.2
par MECHOSTDYN_test1.gNodeB1.cellularNic.channelModel[0] lambdaMinTh 0.02
par MECHOSTDYN_test1.gNodeB1.cellularNic.channelModel[0] lambdaMaxTh 0.2
par MECHOSTDYN_test1.gNodeB1.cellularNic.channelModel[0] lambdaRatioTh 20
par MECHOSTDYN_test1.gNodeB1.cellularNic.channelModel[0] antennaGainUe 0
par MECHOSTDYN_test1.gNodeB1.cellularNic.channelModel[0] antennGainEnB 18
par MECHOSTDYN_test1.gNodeB1.cellularNic.channelModel[0] antennGainMicro 5
par MECHOSTDYN_test1.gNodeB1.cellularNic.channelModel[0] thermalNoise -104.5
par MECHOSTDYN_test1.gNodeB1.cellularNic.channelModel[0] ue_noise_figure 7
par MECHOSTDYN_test1.gNodeB1.cellularNic.channelModel[0] bs_noise_figure 5
par MECHOSTDYN_test1.gNodeB1.cellularNic.channelModel[0] cable_loss 2
par MECHOSTDYN_test1.gNodeB1.cellularNic.channelModel[0] dynamic_los false
par MECHOSTDYN_test1.gNodeB1.cellularNic.channelModel[0] fixed_los false
par MECHOSTDYN_test1.gNodeB1.cellularNic.channelModel[0] fading true
par MECHOSTDYN_test1.gNodeB1.cellularNic.channelModel[0] fading_type "\"JAKES\""
par MECHOSTDYN_test1.gNodeB1.cellularNic.channelModel[0] fading_paths 6
par MECHOSTDYN_test1.gNodeB1.cellularNic.channelModel[0] delay_rms 3.63e-07
par MECHOSTDYN_test1.gNodeB1.cellularNic.channelModel[0] bgCell_interference true
par MECHOSTDYN_test1.gNodeB1.cellularNic.channelModel[0] extCell_interference true
par MECHOSTDYN_test1.gNodeB1.cellularNic.channelModel[0] downlink_interference false
par MECHOSTDYN_test1.gNodeB1.cellularNic.channelModel[0] uplink_interference false
par MECHOSTDYN_test1.gNodeB1.cellularNic.channelModel[0] d2d_interference true
par MECHOSTDYN_test1.gNodeB1.cellularNic.channelModel[0] enable_extCell_los true
par MECHOSTDYN_test1.gNodeB1.cellularNic.channelModel[0] useRsrqFromLog false
par MECHOSTDYN_test1.gNodeB1.cellularNic.channelModel[0] rsrqShift 22
par MECHOSTDYN_test1.gNodeB1.cellularNic.channelModel[0] rsrqScale 1
par MECHOSTDYN_test1.gNodeB1.cellularNic.channelModel[0] collectSinrStatistics true
par MECHOSTDYN_test1.gNodeB1.cellularNic.channelModel[0] useBuildingPenetrationLossHighLossModel false
scalar MECHOSTDYN_test1.gNodeB1.cellularNic.channelModel[0] distance:mean -nan
attr source distance
attr title "distance between UE and serving base station, mean"
attr unit meters
scalar MECHOSTDYN_test1.gNodeB1.cellularNic.channelModel[0] measuredSinrUl:mean -nan
attr source measuredSinrUl
attr title "SINR measured at feedback computation, UL, mean"
attr unit dB
scalar MECHOSTDYN_test1.gNodeB1.cellularNic.channelModel[0] measuredSinrDl:mean -nan
attr source measuredSinrDl
attr title "SINR measured at feedback computation, DL, mean"
attr unit dB
scalar MECHOSTDYN_test1.gNodeB1.cellularNic.channelModel[0] rcvdSinrUl:mean -nan
attr source rcvdSinrUl
attr title "SINR measured at packet reception, UL, mean"
attr unit dB
scalar MECHOSTDYN_test1.gNodeB1.cellularNic.channelModel[0] rcvdSinrDl:mean -nan
attr source rcvdSinrDl
attr title "SINR measured at packet reception, DL, mean"
attr unit dB
par MECHOSTDYN_test1.gNodeB1.cellularNic.x2Manager typename "\"simu5g.x2.LteX2Manager\""
par MECHOSTDYN_test1.gNodeB1.cellularNic.handoverManager typename "\"simu5g.stack.handoverManager.LteHandoverManager\""
par MECHOSTDYN_test1.gNodeB1.cellularNic.handoverManager losslessHandover false
par MECHOSTDYN_test1.gNodeB1.cellularNic.bgTrafficGenerator[0].manager typename "\"simu5g.stack.backgroundTrafficGenerator.BackgroundTrafficManager\""
par MECHOSTDYN_test1.gNodeB1.cellularNic.bgTrafficGenerator[0] typename "\"simu5g.stack.backgroundTrafficGenerator.BackgroundTrafficGenerator\""
par MECHOSTDYN_test1.gNodeB1.cellularNic.bgTrafficGenerator[0] numBgUes 0
par MECHOSTDYN_test1.gNodeB1.cellularNic.bgTrafficGenerator[0] bgTrafficManagerType "\"BackgroundTrafficManager\""
par MECHOSTDYN_test1.gNodeB1.cellularNic.bgTrafficGenerator[0] enablePeriodicCqiUpdate true
par MECHOSTDYN_test1.gNodeB1.cellularNic.bgTrafficGenerator[0] useProbabilisticCqi false
par MECHOSTDYN_test1.gNodeB1.cellularNic.bgTrafficGenerator[0] computeAvgInterference false
par MECHOSTDYN_test1.gNodeB1.cellularNic.d2dModeSelection typename "\"simu5g.stack.d2dModeSelection.D2DModeSelectionBase\""
par MECHOSTDYN_test1.gNodeB1.cellularNic.d2dModeSelection modeSelectionPeriod 1s
attr unit s
par MECHOSTDYN_test1.gNodeB1.cellularNic typename "\"simu5g.stack.NRNicEnb\""
par MECHOSTDYN_test1.gNodeB1.cellularNic displayStringTextFormat "\"%a (%i)\\n%m\""
par MECHOSTDYN_test1.gNodeB1.cellularNic recordPcap false
par MECHOSTDYN_test1.gNodeB1.cellularNic numPcapRecorders 0
par MECHOSTDYN_test1.gNodeB1.cellularNic interfaceTableModule "\"MECHOSTDYN_test1.gNodeB1.interfaceTable\""
par MECHOSTDYN_test1.gNodeB1.cellularNic routingTableModule "\"^.ipv4.routingTable\""
par MECHOSTDYN_test1.gNodeB1.cellularNic LtePdcpRrcType "\"NRPdcpRrcEnb\""
par MECHOSTDYN_test1.gNodeB1.cellularNic LteMacType "\"NRMacGnb\""
par MECHOSTDYN_test1.gNodeB1.cellularNic PacketFlowManagerType "\"NRPacketFlowManagerGnb\""
par MECHOSTDYN_test1.gNodeB1.cellularNic hasRNISupport false
par MECHOSTDYN_test1.gNodeB1.cellularNic LtePhyType "\"LtePhyEnbD2D\""
par MECHOSTDYN_test1.gNodeB1.cellularNic nodeType "\"GNODEB\""
par MECHOSTDYN_test1.gNodeB1.cellularNic processingDelayIn 0s
attr unit s
par MECHOSTDYN_test1.gNodeB1.cellularNic processingDelayOut 0s
attr unit s
par MECHOSTDYN_test1.gNodeB1.cellularNic LteChannelModelType "\"NRChannelModel_3GPP38_901\""
par MECHOSTDYN_test1.gNodeB1.cellularNic d2dCapable true
par MECHOSTDYN_test1.gNodeB1.cellularNic dualConnectivityEnabled false
par MECHOSTDYN_test1.gNodeB1.cellularNic numCarriers 1
par MECHOSTDYN_test1.gNodeB1.cellularNic address "\"0A-AA-00-00-00-01\""
par MECHOSTDYN_test1.gNodeB1.cellularNic compEnabled false
par MECHOSTDYN_test1.gNodeB1.cellularNic LteCompManagerType "\"LteCompManagerProportional\""
par MECHOSTDYN_test1.gNodeB1.cellularNic d2dModeSelectionType "\"D2DModeSelectionBase\""
par MECHOSTDYN_test1.gNodeB1.pppIf.upperLayerIn.channel typename "\"ned.IdealChannel\""
par MECHOSTDYN_test1.gNodeB1.pppIf.phys$i.channel typename "\"ned.IdealChannel\""
par MECHOSTDYN_test1.gNodeB1.pppIf.ppp.phys$o.channel typename "\"ned.IdealChannel\""
par MECHOSTDYN_test1.gNodeB1.pppIf.ppp.upperLayerOut.channel typename "\"ned.IdealChannel\""
par MECHOSTDYN_test1.gNodeB1.pppIf.ppp.queue typename "\"inet.queueing.queue.DropTailQueue\""
par MECHOSTDYN_test1.gNodeB1.pppIf.ppp.queue displayStringTextFormat "\"contains %p pk (%l) pushed %u\\npulled %o removed %r dropped %d\""
par MECHOSTDYN_test1.gNodeB1.pppIf.ppp.queue packetCapacity 10000
par MECHOSTDYN_test1.gNodeB1.pppIf.ppp.queue dataCapacity -1b
attr unit b
par MECHOSTDYN_test1.gNodeB1.pppIf.ppp.queue dropperClass "\"inet::queueing::PacketAtCollectionEndDropper\""
par MECHOSTDYN_test1.gNodeB1.pppIf.ppp.queue comparatorClass "\"\""
par MECHOSTDYN_test1.gNodeB1.pppIf.ppp.queue bufferModule "\"\""
scalar MECHOSTDYN_test1.gNodeB1.pppIf.ppp.queue packetPulled:count 0
attr interpolationmode none
attr title "packet pulled, count"
scalar MECHOSTDYN_test1.gNodeB1.pppIf.ppp.queue packetPulled:sum(packetBytes) 0
attr interpolationmode none
attr title "packet pulled, sum(packetBytes)"
statistic MECHOSTDYN_test1.gNodeB1.pppIf.ppp.queue queueingTime:histogram
field count 0
field mean -nan
field stddev nan
field min nan
field max nan
field sum 0
field sqrsum 0
attr interpolationmode none
attr source queueingTime(packetPulled)
attr title "queueing times, histogram"
attr unit s
bin	-inf	0
bin	0	0
bin	1	0
scalar MECHOSTDYN_test1.gNodeB1.pppIf.ppp.queue queueLength:max nan
attr autoWarmupFilter false
attr interpolationmode sample-hold
attr source "warmup(count(packetPushed) - count(packetPulled) - count(packetRemoved) - count(packetDropped))"
attr title "queue length, max"
attr type int
scalar MECHOSTDYN_test1.gNodeB1.pppIf.ppp.queue queueLength:timeavg -nan
attr autoWarmupFilter false
attr interpolationmode sample-hold
attr source "warmup(count(packetPushed) - count(packetPulled) - count(packetRemoved) - count(packetDropped))"
attr title "queue length, timeavg"
attr type int
scalar MECHOSTDYN_test1.gNodeB1.pppIf.ppp.queue packetPushed:count 0
attr interpolationmode none
attr title "packet pushed, count"
scalar MECHOSTDYN_test1.gNodeB1.pppIf.ppp.queue packetPushed:sum(packetBytes) 0
attr interpolationmode none
attr title "packet pushed, sum(packetBytes)"
scalar MECHOSTDYN_test1.gNodeB1.pppIf.ppp.queue packetDropQueueOverflow:count 0
attr interpolationmode none
attr source packetDropReasonIsQueueOverflow(packetDropped)
attr title "packet drops: queue overflow, count"
scalar MECHOSTDYN_test1.gNodeB1.pppIf.ppp.queue packetDropQueueOverflow:sum(packetBytes) 0
attr interpolationmode none
attr source packetDropReasonIsQueueOverflow(packetDropped)
attr title "packet drops: queue overflow, sum(packetBytes)"
scalar MECHOSTDYN_test1.gNodeB1.pppIf.ppp.queue packetRemoved:count 0
attr interpolationmode none
attr title "packets removed, count"
scalar MECHOSTDYN_test1.gNodeB1.pppIf.ppp.queue packetRemoved:sum(packetBytes) 0
attr interpolationmode none
attr title "packets removed, sum(packetBytes)"
par MECHOSTDYN_test1.gNodeB1.pppIf.ppp typename "\"inet.linklayer.ppp.Ppp\""
par MECHOSTDYN_test1.gNodeB1.pppIf.ppp interfaceTableModule "\"MECHOSTDYN_test1.gNodeB1.interfaceTable\""
par MECHOSTDYN_test1.gNodeB1.pppIf.ppp displayStringTextFormat "\"rate: %b\\nsent: %s, rcvd: %r\\nqueue: %q, drop: %d\""
par MECHOSTDYN_test1.gNodeB1.pppIf.ppp sendRawBytes false
par MECHOSTDYN_test1.gNodeB1.pppIf.ppp mtu 4470B
attr unit B
par MECHOSTDYN_test1.gNodeB1.pppIf.ppp stopOperationExtraTime -1s
attr unit s
par MECHOSTDYN_test1.gNodeB1.pppIf.ppp stopOperationTimeout 2s
attr unit s
scalar MECHOSTDYN_test1.gNodeB1.pppIf.ppp transmissionState:timeavg 0
attr interpolationmode sample-hold
attr source transmissionStateChanged
attr title "tx state, timeavg"
scalar MECHOSTDYN_test1.gNodeB1.pppIf.ppp rxPkOk:count 0
attr interpolationmode none
attr source rxPkOk
attr title "packets received OK, count"
scalar MECHOSTDYN_test1.gNodeB1.pppIf.ppp rxPkOk:sum(packetBytes) 0
attr interpolationmode none
attr source rxPkOk
attr title "packets received OK, sum(packetBytes)"
scalar MECHOSTDYN_test1.gNodeB1.pppIf.ppp txPk:count 0
attr interpolationmode none
attr source packetSentToLower
attr title "packets transmitted, count"
scalar MECHOSTDYN_test1.gNodeB1.pppIf.ppp txPk:sum(packetBytes) 0
attr interpolationmode none
attr source packetSentToLower
attr title "packets transmitted, sum(packetBytes)"
scalar MECHOSTDYN_test1.gNodeB1.pppIf.ppp rcvdPkFromHl:count 0
attr interpolationmode none
attr source packetReceivedFromUpper
attr title "packets received from higher layer, count"
scalar MECHOSTDYN_test1.gNodeB1.pppIf.ppp rcvdPkFromHl:sum(packetBytes) 0
attr interpolationmode none
attr source packetReceivedFromUpper
attr title "packets received from higher layer, sum(packetBytes)"
scalar MECHOSTDYN_test1.gNodeB1.pppIf.ppp passedUpPk:count 0
attr interpolationmode none
attr source packetSentToUpper
attr title "packets passed to higher layer, count"
scalar MECHOSTDYN_test1.gNodeB1.pppIf.ppp passedUpPk:sum(packetBytes) 0
attr interpolationmode none
attr source packetSentToUpper
attr title "packets passed to higher layer, sum(packetBytes)"
scalar MECHOSTDYN_test1.gNodeB1.pppIf.ppp packetDropIncorrectlyReceived:count 0
attr interpolationmode none
attr source packetDropReasonIsIncorrectlyReceived(packetDropped)
attr title "packet drop: incorrectly received, count"
scalar MECHOSTDYN_test1.gNodeB1.pppIf.ppp packetDropIncorrectlyReceived:sum(packetBytes) 0
attr interpolationmode none
attr source packetDropReasonIsIncorrectlyReceived(packetDropped)
attr title "packet drop: incorrectly received, sum(packetBytes)"
scalar MECHOSTDYN_test1.gNodeB1.pppIf.ppp packetDropInterfaceDown:count 0
attr interpolationmode none
attr source packetDropReasonIsInterfaceDown(packetDropped)
attr title "packet drop: interface down, count"
scalar MECHOSTDYN_test1.gNodeB1.pppIf.ppp packetDropInterfaceDown:sum(packetBytes) 0
attr interpolationmode none
attr source packetDropReasonIsInterfaceDown(packetDropped)
attr title "packet drop: interface down, sum(packetBytes)"
par MECHOSTDYN_test1.gNodeB1.pppIf typename "\"inet.linklayer.ppp.PppInterface\""
par MECHOSTDYN_test1.gNodeB1.pppIf displayStringTextFormat "\"%a (%i)\\n%m\""
par MECHOSTDYN_test1.gNodeB1.pppIf recordPcap false
par MECHOSTDYN_test1.gNodeB1.pppIf numPcapRecorders 0
par MECHOSTDYN_test1.gNodeB1.pppIf interfaceTableModule "\"MECHOSTDYN_test1.gNodeB1.interfaceTable\""
par MECHOSTDYN_test1.gNodeB1.pppMEHostIf.upperLayerIn.channel typename "\"ned.IdealChannel\""
par MECHOSTDYN_test1.gNodeB1.pppMEHostIf.phys$i.channel typename "\"ned.IdealChannel\""
par MECHOSTDYN_test1.gNodeB1.pppMEHostIf.ppp.phys$o.channel typename "\"ned.IdealChannel\""
par MECHOSTDYN_test1.gNodeB1.pppMEHostIf.ppp.upperLayerOut.channel typename "\"ned.IdealChannel\""
par MECHOSTDYN_test1.gNodeB1.pppMEHostIf.ppp.queue typename "\"inet.queueing.queue.DropTailQueue\""
par MECHOSTDYN_test1.gNodeB1.pppMEHostIf.ppp.queue displayStringTextFormat "\"contains %p pk (%l) pushed %u\\npulled %o removed %r dropped %d\""
par MECHOSTDYN_test1.gNodeB1.pppMEHostIf.ppp.queue packetCapacity 10000
par MECHOSTDYN_test1.gNodeB1.pppMEHostIf.ppp.queue dataCapacity -1b
attr unit b
par MECHOSTDYN_test1.gNodeB1.pppMEHostIf.ppp.queue dropperClass "\"inet::queueing::PacketAtCollectionEndDropper\""
par MECHOSTDYN_test1.gNodeB1.pppMEHostIf.ppp.queue comparatorClass "\"\""
par MECHOSTDYN_test1.gNodeB1.pppMEHostIf.ppp.queue bufferModule "\"\""
scalar MECHOSTDYN_test1.gNodeB1.pppMEHostIf.ppp.queue packetPulled:count 0
attr interpolationmode none
attr title "packet pulled, count"
scalar MECHOSTDYN_test1.gNodeB1.pppMEHostIf.ppp.queue packetPulled:sum(packetBytes) 0
attr interpolationmode none
attr title "packet pulled, sum(packetBytes)"
statistic MECHOSTDYN_test1.gNodeB1.pppMEHostIf.ppp.queue queueingTime:histogram
field count 0
field mean -nan
field stddev nan
field min nan
field max nan
field sum 0
field sqrsum 0
attr interpolationmode none
attr source queueingTime(packetPulled)
attr title "queueing times, histogram"
attr unit s
bin	-inf	0
bin	0	0
bin	1	0
scalar MECHOSTDYN_test1.gNodeB1.pppMEHostIf.ppp.queue queueLength:max nan
attr autoWarmupFilter false
attr interpolationmode sample-hold
attr source "warmup(count(packetPushed) - count(packetPulled) - count(packetRemoved) - count(packetDropped))"
attr title "queue length, max"
attr type int
scalar MECHOSTDYN_test1.gNodeB1.pppMEHostIf.ppp.queue queueLength:timeavg -nan
attr autoWarmupFilter false
attr interpolationmode sample-hold
attr source "warmup(count(packetPushed) - count(packetPulled) - count(packetRemoved) - count(packetDropped))"
attr title "queue length, timeavg"
attr type int
scalar MECHOSTDYN_test1.gNodeB1.pppMEHostIf.ppp.queue packetPushed:count 0
attr interpolationmode none
attr title "packet pushed, count"
scalar MECHOSTDYN_test1.gNodeB1.pppMEHostIf.ppp.queue packetPushed:sum(packetBytes) 0
attr interpolationmode none
attr title "packet pushed, sum(packetBytes)"
scalar MECHOSTDYN_test1.gNodeB1.pppMEHostIf.ppp.queue packetDropQueueOverflow:count 0
attr interpolationmode none
attr source packetDropReasonIsQueueOverflow(packetDropped)
attr title "packet drops: queue overflow, count"
scalar MECHOSTDYN_test1.gNodeB1.pppMEHostIf.ppp.queue packetDropQueueOverflow:sum(packetBytes) 0
attr interpolationmode none
attr source packetDropReasonIsQueueOverflow(packetDropped)
attr title "packet drops: queue overflow, sum(packetBytes)"
scalar MECHOSTDYN_test1.gNodeB1.pppMEHostIf.ppp.queue packetRemoved:count 0
attr interpolationmode none
attr title "packets removed, count"
scalar MECHOSTDYN_test1.gNodeB1.pppMEHostIf.ppp.queue packetRemoved:sum(packetBytes) 0
attr interpolationmode none
attr title "packets removed, sum(packetBytes)"
par MECHOSTDYN_test1.gNodeB1.pppMEHostIf.ppp typename "\"inet.linklayer.ppp.Ppp\""
par MECHOSTDYN_test1.gNodeB1.pppMEHostIf.ppp interfaceTableModule "\"MECHOSTDYN_test1.gNodeB1.interfaceTable\""
par MECHOSTDYN_test1.gNodeB1.pppMEHostIf.ppp displayStringTextFormat "\"rate: %b\\nsent: %s, rcvd: %r\\nqueue: %q, drop: %d\""
par MECHOSTDYN_test1.gNodeB1.pppMEHostIf.ppp sendRawBytes false
par MECHOSTDYN_test1.gNodeB1.pppMEHostIf.ppp mtu 4470B
attr unit B
par MECHOSTDYN_test1.gNodeB1.pppMEHostIf.ppp stopOperationExtraTime -1s
attr unit s
par MECHOSTDYN_test1.gNodeB1.pppMEHostIf.ppp stopOperationTimeout 2s
attr unit s
scalar MECHOSTDYN_test1.gNodeB1.pppMEHostIf.ppp transmissionState:timeavg 0
attr interpolationmode sample-hold
attr source transmissionStateChanged
attr title "tx state, timeavg"
scalar MECHOSTDYN_test1.gNodeB1.pppMEHostIf.ppp rxPkOk:count 0
attr interpolationmode none
attr source rxPkOk
attr title "packets received OK, count"
scalar MECHOSTDYN_test1.gNodeB1.pppMEHostIf.ppp rxPkOk:sum(packetBytes) 0
attr interpolationmode none
attr source rxPkOk
attr title "packets received OK, sum(packetBytes)"
scalar MECHOSTDYN_test1.gNodeB1.pppMEHostIf.ppp txPk:count 0
attr interpolationmode none
attr source packetSentToLower
attr title "packets transmitted, count"
scalar MECHOSTDYN_test1.gNodeB1.pppMEHostIf.ppp txPk:sum(packetBytes) 0
attr interpolationmode none
attr source packetSentToLower
attr title "packets transmitted, sum(packetBytes)"
scalar MECHOSTDYN_test1.gNodeB1.pppMEHostIf.ppp rcvdPkFromHl:count 0
attr interpolationmode none
attr source packetReceivedFromUpper
attr title "packets received from higher layer, count"
scalar MECHOSTDYN_test1.gNodeB1.pppMEHostIf.ppp rcvdPkFromHl:sum(packetBytes) 0
attr interpolationmode none
attr source packetReceivedFromUpper
attr title "packets received from higher layer, sum(packetBytes)"
scalar MECHOSTDYN_test1.gNodeB1.pppMEHostIf.ppp passedUpPk:count 0
attr interpolationmode none
attr source packetSentToUpper
attr title "packets passed to higher layer, count"
scalar MECHOSTDYN_test1.gNodeB1.pppMEHostIf.ppp passedUpPk:sum(packetBytes) 0
attr interpolationmode none
attr source packetSentToUpper
attr title "packets passed to higher layer, sum(packetBytes)"
scalar MECHOSTDYN_test1.gNodeB1.pppMEHostIf.ppp packetDropIncorrectlyReceived:count 0
attr interpolationmode none
attr source packetDropReasonIsIncorrectlyReceived(packetDropped)
attr title "packet drop: incorrectly received, count"
scalar MECHOSTDYN_test1.gNodeB1.pppMEHostIf.ppp packetDropIncorrectlyReceived:sum(packetBytes) 0
attr interpolationmode none
attr source packetDropReasonIsIncorrectlyReceived(packetDropped)
attr title "packet drop: incorrectly received, sum(packetBytes)"
scalar MECHOSTDYN_test1.gNodeB1.pppMEHostIf.ppp packetDropInterfaceDown:count 0
attr interpolationmode none
attr source packetDropReasonIsInterfaceDown(packetDropped)
attr title "packet drop: interface down, count"
scalar MECHOSTDYN_test1.gNodeB1.pppMEHostIf.ppp packetDropInterfaceDown:sum(packetBytes) 0
attr interpolationmode none
attr source packetDropReasonIsInterfaceDown(packetDropped)
attr title "packet drop: interface down, sum(packetBytes)"
par MECHOSTDYN_test1.gNodeB1.pppMEHostIf typename "\"inet.linklayer.ppp.PppInterface\""
par MECHOSTDYN_test1.gNodeB1.pppMEHostIf displayStringTextFormat "\"%a (%i)\\n%m\""
par MECHOSTDYN_test1.gNodeB1.pppMEHostIf recordPcap false
par MECHOSTDYN_test1.gNodeB1.pppMEHostIf numPcapRecorders 0
par MECHOSTDYN_test1.gNodeB1.pppMEHostIf interfaceTableModule "\"MECHOSTDYN_test1.gNodeB1.interfaceTable\""
par MECHOSTDYN_test1.gNodeB1.ipv4.transportIn.channel typename "\"ned.IdealChannel\""
par MECHOSTDYN_test1.gNodeB1.ipv4.up.out[0].channel typename "\"ned.IdealChannel\""
par MECHOSTDYN_test1.gNodeB1.ipv4.lp.out[2].channel typename "\"ned.IdealChannel\""
par MECHOSTDYN_test1.gNodeB1.ipv4.ifIn.channel typename "\"ned.IdealChannel\""
par MECHOSTDYN_test1.gNodeB1.ipv4.configurator typename "\"inet.networklayer.configurator.ipv4.Ipv4NodeConfigurator\""
par MECHOSTDYN_test1.gNodeB1.ipv4.configurator interfaceTableModule "\"MECHOSTDYN_test1.gNodeB1.interfaceTable\""
par MECHOSTDYN_test1.gNodeB1.ipv4.configurator routingTableModule "\"MECHOSTDYN_test1.gNodeB1.ipv4.routingTable\""
par MECHOSTDYN_test1.gNodeB1.ipv4.configurator networkConfiguratorModule "\"configurator\""
par MECHOSTDYN_test1.gNodeB1.ipv4.configurator configureRoutingTable true
par MECHOSTDYN_test1.gNodeB1.ipv4.routingTable typename "\"inet.networklayer.ipv4.Ipv4RoutingTable\""
par MECHOSTDYN_test1.gNodeB1.ipv4.routingTable interfaceTableModule "\"MECHOSTDYN_test1.gNodeB1.interfaceTable\""
par MECHOSTDYN_test1.gNodeB1.ipv4.routingTable routerId "\"auto\""
par MECHOSTDYN_test1.gNodeB1.ipv4.routingTable netmaskRoutes "\"*\""
par MECHOSTDYN_test1.gNodeB1.ipv4.routingTable forwarding true
par MECHOSTDYN_test1.gNodeB1.ipv4.routingTable multicastForwarding false
par MECHOSTDYN_test1.gNodeB1.ipv4.routingTable useAdminDist false
par MECHOSTDYN_test1.gNodeB1.ipv4.routingTable routingFile "\"\""
par MECHOSTDYN_test1.gNodeB1.ipv4.natTable typename "\"inet.networklayer.ipv4.Ipv4NatTable\""
par MECHOSTDYN_test1.gNodeB1.ipv4.natTable networkProtocolModule "\"^.ip\""
par MECHOSTDYN_test1.gNodeB1.ipv4.natTable config "<config/> at content:1"
par MECHOSTDYN_test1.gNodeB1.ipv4.up typename "\"inet.common.MessageDispatcher\""
par MECHOSTDYN_test1.gNodeB1.ipv4.up displayStringTextFormat "\"processed %p pk (%l)\""
par MECHOSTDYN_test1.gNodeB1.ipv4.igmp typename "\"inet.networklayer.ipv4.Igmpv2\""
par MECHOSTDYN_test1.gNodeB1.ipv4.igmp interfaceTableModule "\"MECHOSTDYN_test1.gNodeB1.interfaceTable\""
par MECHOSTDYN_test1.gNodeB1.ipv4.igmp routingTableModule "\"MECHOSTDYN_test1.gNodeB1.ipv4.routingTable\""
par MECHOSTDYN_test1.gNodeB1.ipv4.igmp crcMode "\"declared\""
attr enum declared,computed
par MECHOSTDYN_test1.gNodeB1.ipv4.igmp enabled true
par MECHOSTDYN_test1.gNodeB1.ipv4.igmp robustnessVariable 2
par MECHOSTDYN_test1.gNodeB1.ipv4.igmp queryInterval 125s
attr unit s
par MECHOSTDYN_test1.gNodeB1.ipv4.igmp queryResponseInterval 10s
attr unit s
par MECHOSTDYN_test1.gNodeB1.ipv4.igmp groupMembershipInterval 260s
attr unit s
par MECHOSTDYN_test1.gNodeB1.ipv4.igmp otherQuerierPresentInterval 255s
attr unit s
par MECHOSTDYN_test1.gNodeB1.ipv4.igmp startupQueryInterval 31.25s
attr unit s
par MECHOSTDYN_test1.gNodeB1.ipv4.igmp startupQueryCount 2
par MECHOSTDYN_test1.gNodeB1.ipv4.igmp lastMemberQueryInterval 1s
attr unit s
par MECHOSTDYN_test1.gNodeB1.ipv4.igmp lastMemberQueryCount 2
par MECHOSTDYN_test1.gNodeB1.ipv4.igmp unsolicitedReportInterval 10s
attr unit s
par MECHOSTDYN_test1.gNodeB1.ipv4.icmp typename "\"inet.networklayer.ipv4.Icmp\""
par MECHOSTDYN_test1.gNodeB1.ipv4.icmp interfaceTableModule "\"MECHOSTDYN_test1.gNodeB1.interfaceTable\""
par MECHOSTDYN_test1.gNodeB1.ipv4.icmp routingTableModule "\"MECHOSTDYN_test1.gNodeB1.ipv4.routingTable\""
par MECHOSTDYN_test1.gNodeB1.ipv4.icmp crcMode "\"declared\""
attr enum declared,computed
par MECHOSTDYN_test1.gNodeB1.ipv4.icmp quoteLength 8B
attr unit B
par MECHOSTDYN_test1.gNodeB1.ipv4.mp typename "\"inet.common.MessageDispatcher\""
par MECHOSTDYN_test1.gNodeB1.ipv4.mp displayStringTextFormat "\"processed %p pk (%l)\""
par MECHOSTDYN_test1.gNodeB1.ipv4.ip typename "\"inet.networklayer.ipv4.Ipv4\""
par MECHOSTDYN_test1.gNodeB1.ipv4.ip interfaceTableModule "\"MECHOSTDYN_test1.gNodeB1.interfaceTable\""
par MECHOSTDYN_test1.gNodeB1.ipv4.ip routingTableModule "\"MECHOSTDYN_test1.gNodeB1.ipv4.routingTable\""
par MECHOSTDYN_test1.gNodeB1.ipv4.ip arpModule "\"MECHOSTDYN_test1.gNodeB1.ipv4.arp\""
par MECHOSTDYN_test1.gNodeB1.ipv4.ip icmpModule "\"MECHOSTDYN_test1.gNodeB1.ipv4.icmp\""
par MECHOSTDYN_test1.gNodeB1.ipv4.ip crcMode "\"declared\""
attr enum declared,computed
par MECHOSTDYN_test1.gNodeB1.ipv4.ip timeToLive 32
par MECHOSTDYN_test1.gNodeB1.ipv4.ip multicastTimeToLive 32
par MECHOSTDYN_test1.gNodeB1.ipv4.ip fragmentTimeout 60s
attr unit s
par MECHOSTDYN_test1.gNodeB1.ipv4.ip limitedBroadcast false
par MECHOSTDYN_test1.gNodeB1.ipv4.ip directBroadcastInterfaces "\"\""
scalar MECHOSTDYN_test1.gNodeB1.ipv4.ip packetDropAddressResolutionFailed:count 0
attr interpolationmode none
attr source packetDropReasonIsAddressResolutionFailed(packetDropped)
attr title "packet drop: address resolution failed, count"
scalar MECHOSTDYN_test1.gNodeB1.ipv4.ip packetDropAddressResolutionFailed:sum(packetBytes) 0
attr interpolationmode none
attr source packetDropReasonIsAddressResolutionFailed(packetDropped)
attr title "packet drop: address resolution failed, sum(packetBytes)"
scalar MECHOSTDYN_test1.gNodeB1.ipv4.ip packetDropHopLimitReached:count 0
attr interpolationmode none
attr source packetDropReasonIsHopLimitReached(packetDropped)
attr title "packet drop: hop limit reached, count"
scalar MECHOSTDYN_test1.gNodeB1.ipv4.ip packetDropHopLimitReached:sum(packetBytes) 0
attr interpolationmode none
attr source packetDropReasonIsHopLimitReached(packetDropped)
attr title "packet drop: hop limit reached, sum(packetBytes)"
scalar MECHOSTDYN_test1.gNodeB1.ipv4.ip packetDropForwardingDisabled:count 0
attr interpolationmode none
attr source packetDropReasonIsForwardingDisabled(packetDropped)
attr title "packet drop: forwarding disabled, count"
scalar MECHOSTDYN_test1.gNodeB1.ipv4.ip packetDropForwardingDisabled:sum(packetBytes) 0
attr interpolationmode none
attr source packetDropReasonIsForwardingDisabled(packetDropped)
attr title "packet drop: forwarding disabled, sum(packetBytes)"
scalar MECHOSTDYN_test1.gNodeB1.ipv4.ip packetDropNoInterfaceFound:count 0
attr interpolationmode none
attr source packetDropReasonIsNoInterfaceFound(packetDropped)
attr title "packet drop: no interface found, count"
scalar MECHOSTDYN_test1.gNodeB1.ipv4.ip packetDropNoInterfaceFound:sum(packetBytes) 0
attr interpolationmode none
attr source packetDropReasonIsNoInterfaceFound(packetDropped)
attr title "packet drop: no interface found, sum(packetBytes)"
scalar MECHOSTDYN_test1.gNodeB1.ipv4.ip packetDropNoRouteFound:count 0
attr interpolationmode none
attr source packetDropReasonIsNoRouteFound(packetDropped)
attr title "packet drop: no route found, count"
scalar MECHOSTDYN_test1.gNodeB1.ipv4.ip packetDropNoRouteFound:sum(packetBytes) 0
attr interpolationmode none
attr source packetDropReasonIsNoRouteFound(packetDropped)
attr title "packet drop: no route found, sum(packetBytes)"
scalar MECHOSTDYN_test1.gNodeB1.ipv4.ip packetDropUndefined:count 0
attr interpolationmode none
attr source packetDropReasonIsUndefined(packetDropped)
attr title "packet drop: undefined, count"
scalar MECHOSTDYN_test1.gNodeB1.ipv4.ip packetDropUndefined:sum(packetBytes) 0
attr interpolationmode none
attr source packetDropReasonIsUndefined(packetDropped)
attr title "packet drop: undefined, sum(packetBytes)"
par MECHOSTDYN_test1.gNodeB1.ipv4.arp typename "\"inet.networklayer.arp.ipv4.Arp\""
par MECHOSTDYN_test1.gNodeB1.ipv4.arp interfaceTableModule "\"MECHOSTDYN_test1.gNodeB1.interfaceTable\""
par MECHOSTDYN_test1.gNodeB1.ipv4.arp routingTableModule "\"MECHOSTDYN_test1.gNodeB1.ipv4.routingTable\""
par MECHOSTDYN_test1.gNodeB1.ipv4.arp retryTimeout 1s
attr unit s
par MECHOSTDYN_test1.gNodeB1.ipv4.arp retryCount 3
par MECHOSTDYN_test1.gNodeB1.ipv4.arp cacheTimeout 120s
attr unit s
par MECHOSTDYN_test1.gNodeB1.ipv4.arp proxyArpInterfaces "\"*\""
scalar MECHOSTDYN_test1.gNodeB1.ipv4.arp arpResolutionFailed:count 0
attr title "ARP failed resolutions, count"
scalar MECHOSTDYN_test1.gNodeB1.ipv4.arp arpResolutionCompleted:count 0
attr title "ARP completed resolutions, count"
scalar MECHOSTDYN_test1.gNodeB1.ipv4.arp arpResolutionInitiated:count 0
attr title "ARP initiated resolutions, count"
scalar MECHOSTDYN_test1.gNodeB1.ipv4.arp arpReplySent:count 0
attr source arpReplySent
attr title "ARP replies sent, count"
scalar MECHOSTDYN_test1.gNodeB1.ipv4.arp arpReplySent:sum(packetBytes) 0
attr source arpReplySent
attr title "ARP replies sent, sum(packetBytes)"
scalar MECHOSTDYN_test1.gNodeB1.ipv4.arp arpRequestSent:count 0
attr source arpRequestSent
attr title "ARP request sent, count"
scalar MECHOSTDYN_test1.gNodeB1.ipv4.arp arpRequestSent:sum(packetBytes) 0
attr source arpRequestSent
attr title "ARP request sent, sum(packetBytes)"
par MECHOSTDYN_test1.gNodeB1.ipv4.lp typename "\"inet.common.MessageDispatcher\""
par MECHOSTDYN_test1.gNodeB1.ipv4.lp displayStringTextFormat "\"processed %p pk (%l)\""
par MECHOSTDYN_test1.gNodeB1.ipv4 typename "\"inet.networklayer.ipv4.Ipv4NetworkLayer\""
par MECHOSTDYN_test1.gNodeB1.ipv4 forwarding true
par MECHOSTDYN_test1.gNodeB1.ipv4 multicastForwarding false
par MECHOSTDYN_test1.gNodeB1.ipv4 interfaceTableModule "\"MECHOSTDYN_test1.gNodeB1.interfaceTable\""
par MECHOSTDYN_test1.gNodeB1.ipv4 displayStringTextFormat "\"%i\""
par MECHOSTDYN_test1.gNodeB1.udp typename "\"inet.transportlayer.udp.Udp\""
par MECHOSTDYN_test1.gNodeB1.udp interfaceTableModule "\"MECHOSTDYN_test1.gNodeB1.interfaceTable\""
par MECHOSTDYN_test1.gNodeB1.udp icmpModule "\"^.ipv4.icmp\""
par MECHOSTDYN_test1.gNodeB1.udp icmpv6Module "\"^.ipv6.icmpv6\""
par MECHOSTDYN_test1.gNodeB1.udp crcMode "\"declared\""
attr enum disabled,declared,computed
scalar MECHOSTDYN_test1.gNodeB1.udp packetReceived:count 0
attr interpolationmode none
attr source packetReceived
attr title "packets received, count"
scalar MECHOSTDYN_test1.gNodeB1.udp packetReceived:sum(packetBytes) 0
attr interpolationmode none
attr source packetReceived
attr title "packets received, sum(packetBytes)"
scalar MECHOSTDYN_test1.gNodeB1.udp packetSent:count 0
attr interpolationmode none
attr source packetSent
attr title "packets sent, count"
scalar MECHOSTDYN_test1.gNodeB1.udp packetSent:sum(packetBytes) 0
attr interpolationmode none
attr source packetSent
attr title "packets sent, sum(packetBytes)"
scalar MECHOSTDYN_test1.gNodeB1.udp passedUpPk:count 0
attr interpolationmode none
attr source packetSentToUpper
attr title "packets passed up, count"
scalar MECHOSTDYN_test1.gNodeB1.udp droppedPkWrongPort:count 0
attr interpolationmode none
attr source packetDropReasonIsNoPortFound(packetDropped)
attr title "packets dropped (wrong port), count"
scalar MECHOSTDYN_test1.gNodeB1.udp droppedPkBadChecksum:count 0
attr interpolationmode none
attr source packetDropReasonIsIncorrectlyReceived(packetDropped)
attr title "packets dropped (checksum error), count"
par MECHOSTDYN_test1.gNodeB1.tcp typename "\"inet.transportlayer.tcp.Tcp\""
par MECHOSTDYN_test1.gNodeB1.tcp crcMode "\"declared\""
attr enum declared,computed
par MECHOSTDYN_test1.gNodeB1.tcp advertisedWindow 7504
par MECHOSTDYN_test1.gNodeB1.tcp delayedAcksEnabled false
par MECHOSTDYN_test1.gNodeB1.tcp nagleEnabled true
par MECHOSTDYN_test1.gNodeB1.tcp limitedTransmitEnabled false
par MECHOSTDYN_test1.gNodeB1.tcp increasedIWEnabled false
par MECHOSTDYN_test1.gNodeB1.tcp sackSupport false
par MECHOSTDYN_test1.gNodeB1.tcp windowScalingSupport false
par MECHOSTDYN_test1.gNodeB1.tcp windowScalingFactor -1
par MECHOSTDYN_test1.gNodeB1.tcp timestampSupport false
par MECHOSTDYN_test1.gNodeB1.tcp mss 536
par MECHOSTDYN_test1.gNodeB1.tcp msl 120s
attr unit s
par MECHOSTDYN_test1.gNodeB1.tcp tcpAlgorithmClass "\"TcpReno\""
attr enum TcpVegas,TcpWestwood,TcpNewReno,TcpReno,TcpTahoe,TcpNoCongestionControl
par MECHOSTDYN_test1.gNodeB1.tcp useDataNotification false
par MECHOSTDYN_test1.gNodeB1.tcp dupthresh 3
par MECHOSTDYN_test1.gNodeB1.tcp initialSsthresh 4294967295
par MECHOSTDYN_test1.gNodeB1.tcp stopOperationExtraTime 0s
attr unit s
par MECHOSTDYN_test1.gNodeB1.tcp stopOperationTimeout 2s
attr unit s
par MECHOSTDYN_test1.gNodeB1.tcp ecnWillingness false
par MECHOSTDYN_test1.gNodeB1.tcp dctcpGamma 0.0625
par MECHOSTDYN_test1.gNodeB1.sctp typename "\"inet.transportlayer.sctp.Sctp\""
par MECHOSTDYN_test1.gNodeB1.sctp interfaceTableModule "\"MECHOSTDYN_test1.gNodeB1.interfaceTable\""
par MECHOSTDYN_test1.gNodeB1.sctp routingTableModule "\"^.ipv4.routingTable\""
par MECHOSTDYN_test1.gNodeB1.sctp crcMode "\"declared\""
attr enum declared,computed
par MECHOSTDYN_test1.gNodeB1.sctp numGapReports 3
par MECHOSTDYN_test1.gNodeB1.sctp rtoInitial 3s
attr unit s
par MECHOSTDYN_test1.gNodeB1.sctp rtoMin 1s
attr unit s
par MECHOSTDYN_test1.gNodeB1.sctp rtoMax 60s
attr unit s
par MECHOSTDYN_test1.gNodeB1.sctp rtoAlpha 0.125
par MECHOSTDYN_test1.gNodeB1.sctp rtoBeta 0.25
par MECHOSTDYN_test1.gNodeB1.sctp maxBurst 4
par MECHOSTDYN_test1.gNodeB1.sctp maxBurstVariant "\"maxBurst\""
par MECHOSTDYN_test1.gNodeB1.sctp initialWindow 0
par MECHOSTDYN_test1.gNodeB1.sctp assocMaxRetrans 10
par MECHOSTDYN_test1.gNodeB1.sctp pathMaxRetrans 5
par MECHOSTDYN_test1.gNodeB1.sctp maxInitRetrans 8
par MECHOSTDYN_test1.gNodeB1.sctp sackPeriod 0.2s
attr unit s
par MECHOSTDYN_test1.gNodeB1.sctp sackFrequency 2
par MECHOSTDYN_test1.gNodeB1.sctp reactivatePrimaryPath false
par MECHOSTDYN_test1.gNodeB1.sctp sendQueueLimit 0
par MECHOSTDYN_test1.gNodeB1.sctp validCookieLifetime 10s
attr unit s
par MECHOSTDYN_test1.gNodeB1.sctp enableHeartbeats true
par MECHOSTDYN_test1.gNodeB1.sctp hbInterval 30s
attr unit s
par MECHOSTDYN_test1.gNodeB1.sctp sendHeartbeatsOnActivePaths false
par MECHOSTDYN_test1.gNodeB1.sctp nagleEnabled true
par MECHOSTDYN_test1.gNodeB1.sctp naglePoint 1468
par MECHOSTDYN_test1.gNodeB1.sctp fragPoint 1452
par MECHOSTDYN_test1.gNodeB1.sctp fastRecoverySupported true
par MECHOSTDYN_test1.gNodeB1.sctp sctpAlgorithmClass "\"SctpAlg\""
par MECHOSTDYN_test1.gNodeB1.sctp ccModule 0
par MECHOSTDYN_test1.gNodeB1.sctp osbWithHeader false
par MECHOSTDYN_test1.gNodeB1.sctp RTXMethod 0
par MECHOSTDYN_test1.gNodeB1.sctp ssModule 0
par MECHOSTDYN_test1.gNodeB1.sctp arwnd 65535
par MECHOSTDYN_test1.gNodeB1.sctp swsLimit 3000
par MECHOSTDYN_test1.gNodeB1.sctp udpEncapsEnabled false
par MECHOSTDYN_test1.gNodeB1.sctp natFriendly false
par MECHOSTDYN_test1.gNodeB1.sctp bytesToAddPerRcvdChunk 0
par MECHOSTDYN_test1.gNodeB1.sctp bytesToAddPerPeerChunk 0
par MECHOSTDYN_test1.gNodeB1.sctp tellArwnd false
par MECHOSTDYN_test1.gNodeB1.sctp messageAcceptLimit 0
par MECHOSTDYN_test1.gNodeB1.sctp fairStart 0s
attr unit s
par MECHOSTDYN_test1.gNodeB1.sctp fairStop 0s
attr unit s
par MECHOSTDYN_test1.gNodeB1.sctp streamsToPaths "\"\""
par MECHOSTDYN_test1.gNodeB1.sctp startEndToEndDelay 0
par MECHOSTDYN_test1.gNodeB1.sctp stopEndToEndDelay 10
par MECHOSTDYN_test1.gNodeB1.sctp throughputInterval 1
par MECHOSTDYN_test1.gNodeB1.sctp auth false
par MECHOSTDYN_test1.gNodeB1.sctp chunks "\"\""
par MECHOSTDYN_test1.gNodeB1.sctp padding false
par MECHOSTDYN_test1.gNodeB1.sctp addIP false
par MECHOSTDYN_test1.gNodeB1.sctp addTime 0s
attr unit s
par MECHOSTDYN_test1.gNodeB1.sctp addAddress "\"\""
par MECHOSTDYN_test1.gNodeB1.sctp addIpType "\"0\""
par MECHOSTDYN_test1.gNodeB1.sctp packetDrop false
par MECHOSTDYN_test1.gNodeB1.sctp sackNow false
par MECHOSTDYN_test1.gNodeB1.sctp highSpeedCC false
par MECHOSTDYN_test1.gNodeB1.sctp checkSackSeqNumber false
par MECHOSTDYN_test1.gNodeB1.sctp nrSack false
par MECHOSTDYN_test1.gNodeB1.sctp disableReneging false
par MECHOSTDYN_test1.gNodeB1.sctp gapReportLimit 100000000
par MECHOSTDYN_test1.gNodeB1.sctp gapListOptimizationVariant "\"none\""
par MECHOSTDYN_test1.gNodeB1.sctp smartOverfullSACKHandling false
par MECHOSTDYN_test1.gNodeB1.sctp allowQoSTracking false
par MECHOSTDYN_test1.gNodeB1.sctp qosTrackingInterval 1s
attr unit s
par MECHOSTDYN_test1.gNodeB1.sctp cmtSendAllVariant "\"normal\""
par MECHOSTDYN_test1.gNodeB1.sctp cmtRetransmissionVariant "\"normal\""
par MECHOSTDYN_test1.gNodeB1.sctp cmtCUCVariant "\"normal\""
par MECHOSTDYN_test1.gNodeB1.sctp cmtBufferSplitVariant "\"none\""
par MECHOSTDYN_test1.gNodeB1.sctp cmtBufferSplittingUsesOSB false
par MECHOSTDYN_test1.gNodeB1.sctp cmtUseSFR true
par MECHOSTDYN_test1.gNodeB1.sctp cmtUseDAC true
par MECHOSTDYN_test1.gNodeB1.sctp cmtUseFRC true
par MECHOSTDYN_test1.gNodeB1.sctp cmtSmartT3Reset true
par MECHOSTDYN_test1.gNodeB1.sctp cmtSmartFastRTX true
par MECHOSTDYN_test1.gNodeB1.sctp cmtSmartReneging false
par MECHOSTDYN_test1.gNodeB1.sctp cmtSlowPathRTTUpdate false
par MECHOSTDYN_test1.gNodeB1.sctp cmtChunkReschedulingVariant "\"none\""
par MECHOSTDYN_test1.gNodeB1.sctp cmtChunkReschedulingThreshold 0.5
par MECHOSTDYN_test1.gNodeB1.sctp cmtMovedChunksReduceCwnd true
par MECHOSTDYN_test1.gNodeB1.sctp movedChunkFastRTXFactor 2
par MECHOSTDYN_test1.gNodeB1.sctp cmtSackPath "\"standard\""
par MECHOSTDYN_test1.gNodeB1.sctp strictCwndBooking false
par MECHOSTDYN_test1.gNodeB1.sctp cmtCCVariant "\"off\""
par MECHOSTDYN_test1.gNodeB1.sctp cmtCCPathGroups "\"\""
par MECHOSTDYN_test1.gNodeB1.sctp rpPathBlocking false
par MECHOSTDYN_test1.gNodeB1.sctp rpScaleBlockingTimeout false
par MECHOSTDYN_test1.gNodeB1.sctp rpMinCwnd 1
par MECHOSTDYN_test1.gNodeB1.at typename "\"inet.common.MessageDispatcher\""
par MECHOSTDYN_test1.gNodeB1.at displayStringTextFormat "\"processed %p pk (%l)\""
par MECHOSTDYN_test1.gNodeB1.tn typename "\"inet.common.MessageDispatcher\""
par MECHOSTDYN_test1.gNodeB1.tn displayStringTextFormat "\"processed %p pk (%l)\""
par MECHOSTDYN_test1.gNodeB1.nl typename "\"inet.common.MessageDispatcher\""
[...]
attr source rlcPduThroughputDl
attr title "Throughput at the rlc layer DL, mean"
attr unit Bps
scalar MECHOSTDYN_test1.car.cellularNic.nrRlc.am rlcPduDelayDl:mean -nan
attr source rlcPduDelayDl
attr title "Delay at the rlc layer UL, mean"
attr unit s
scalar MECHOSTDYN_test1.car.cellularNic.nrRlc.am rlcCellPacketLossUl:mean -nan
attr source rlcCellPacketLossUl
attr title "rlc Cell Packet Loss, mean"
attr unit ""
scalar MECHOSTDYN_test1.car.cellularNic.nrRlc.am rlcCellPacketLossDl:mean -nan
attr source rlcCellPacketLossDl
attr title "rlc Cell Packet Loss, mean"
attr unit ""
scalar MECHOSTDYN_test1.car.cellularNic.nrRlc.am rlcCellThroughputDl:mean -nan
attr source rlcCellThroughputDl
attr title "Cell Throughput at the rlc layer DL, mean"
attr unit Bps
scalar MECHOSTDYN_test1.car.cellularNic.nrRlc.am rlcCellThroughputUl:mean -nan
attr source rlcCellThroughputUl
attr title "Cell Throughput at the rlc layer UL, mean"
attr unit Bps
scalar MECHOSTDYN_test1.car.cellularNic.nrRlc.am rlcPacketLossTotal:mean -nan
attr source rlcPacketLossTotal
attr title "rlc Packet Loss, mean"
attr unit ""
scalar MECHOSTDYN_test1.car.cellularNic.nrRlc.am rlcThroughputUl:mean -nan
attr source rlcThroughputUl
attr title "Throughput at the rlc layer UL, mean"
attr unit Bps
scalar MECHOSTDYN_test1.car.cellularNic.nrRlc.am rlcDelayUl:mean -nan
attr source rlcDelayUl
attr title "Delay at the rlc layer UL, mean"
attr unit s
scalar MECHOSTDYN_test1.car.cellularNic.nrRlc.am rlcThroughputDl:mean -nan
attr source rlcThroughputDl
attr title "Throughput at the rlc layer DL, mean"
attr unit Bps
scalar MECHOSTDYN_test1.car.cellularNic.nrRlc.am rlcDelayDl:mean -nan
attr source rlcDelayDl
attr title "Delay at the rlc layer UL, mean"
attr unit s
scalar MECHOSTDYN_test1.car.cellularNic.nrRlc.am rlcPacketLossDl:mean -nan
attr source rlcPacketLossDl
attr title "rlc Packet Loss, mean"
attr unit ""
scalar MECHOSTDYN_test1.car.cellularNic.nrRlc.am rlcPacketLossUl:mean -nan
attr source rlcPacketLossUl
attr title "rlc Packet Loss, mean"
attr unit ""
par MECHOSTDYN_test1.car.cellularNic.nrRlc.mux typename "\"simu5g.stack.rlc.LteRlcMux\""
par "MECHOSTDYN_test1.car.cellularNic.nrRlc.UmTxEntity Lcid: 1" typename "\"simu5g.stack.rlc.UmTxEntity\""
par "MECHOSTDYN_test1.car.cellularNic.nrRlc.UmTxEntity Lcid: 1" fragmentSize 30B
attr unit B
par MECHOSTDYN_test1.car.cellularNic.nrRlc typename "\"simu5g.stack.rlc.LteRlc\""
par MECHOSTDYN_test1.car.cellularNic.nrRlc LteRlcUmType "\"LteRlcUm\""
par MECHOSTDYN_test1.car.cellularNic.nrRlc d2dCapable true
par MECHOSTDYN_test1.car.cellularNic.nrRlc umType "\"LteRlcUmD2D\""
par MECHOSTDYN_test1.car.cellularNic.nrMac typename "\"simu5g.stack.mac.NRMacUe\""
par MECHOSTDYN_test1.car.cellularNic.nrMac interfaceTableModule "\"MECHOSTDYN_test1.car.interfaceTable\""
par MECHOSTDYN_test1.car.cellularNic.nrMac queueSize 2097152B
attr unit B
par MECHOSTDYN_test1.car.cellularNic.nrMac muMimo true
par MECHOSTDYN_test1.car.cellularNic.nrMac harqProcesses 8
par MECHOSTDYN_test1.car.cellularNic.nrMac maxHarqRtx 3
par MECHOSTDYN_test1.car.cellularNic.nrMac harqFbEvaluationTimer 4
par MECHOSTDYN_test1.car.cellularNic.nrMac statDisplay false
par MECHOSTDYN_test1.car.cellularNic.nrMac usePreconfiguredTxParams false
par MECHOSTDYN_test1.car.cellularNic.nrMac d2dCqi 7
scalar MECHOSTDYN_test1.car.cellularNic.nrMac rcvdD2DModeSwitchNotification:count 0
attr source rcvdD2DModeSwitchNotification
attr title "Reception of mode switch notification (tx side), count"
attr unit ""
scalar MECHOSTDYN_test1.car.cellularNic.nrMac macThroughputD2D:mean -nan
attr source macThroughputD2D
attr title "Throughput at the MAC layer D2D, mean"
attr unit Bps
scalar MECHOSTDYN_test1.car.cellularNic.nrMac macDelayD2D:mean -nan
attr source macDelayD2D
attr title "Delay at the MAC layer D2D, mean"
attr unit s
scalar MECHOSTDYN_test1.car.cellularNic.nrMac macPacketLossD2D:mean -nan
attr source macPacketLossD2D
attr title "Mac Packet Loss D2D, mean"
attr unit ""
scalar MECHOSTDYN_test1.car.cellularNic.nrMac harqErrorRateD2D:mean -nan
attr source harqErrorRateD2D
attr title "Harq Error Rate D2D, mean"
attr unit ""
scalar MECHOSTDYN_test1.car.cellularNic.nrMac harqErrorRate_4th_D2D:mean -nan
attr source harqErrorRate_4th_D2D
attr title "Harq Error Rate D2D 4th Tx, mean"
attr unit ""
scalar MECHOSTDYN_test1.car.cellularNic.nrMac harqErrorRate_3rd_D2D:mean -nan
attr source harqErrorRate_3rd_D2D
attr title "Harq Error Rate D2D 3rd Tx, mean"
attr unit ""
scalar MECHOSTDYN_test1.car.cellularNic.nrMac harqErrorRate_2nd_D2D:mean -nan
attr source harqErrorRate_2nd_D2D
attr title "Harq Error Rate D2D 2nd Tx, mean"
attr unit ""
scalar MECHOSTDYN_test1.car.cellularNic.nrMac harqErrorRate_1st_D2D:mean -nan
attr source harqErrorRate_1st_D2D
attr title "Harq Error Rate D2D 1st Tx, mean"
attr unit ""
scalar MECHOSTDYN_test1.car.cellularNic.nrMac measuredItbs:mean -nan
attr source measuredItbs
attr title "TBS index, mean"
attr unit ""
scalar MECHOSTDYN_test1.car.cellularNic.nrMac harqErrorRate_4th_Dl:mean -nan
attr source harqErrorRate_4th_Dl
attr title "Harq Error Rate Dl, mean"
attr unit ""
scalar MECHOSTDYN_test1.car.cellularNic.nrMac harqErrorRate_4th_Ul:mean -nan
attr source harqErrorRate_4th_Ul
attr title "Harq Error Rate Ul, mean"
attr unit ""
scalar MECHOSTDYN_test1.car.cellularNic.nrMac harqErrorRate_3rd_Dl:mean -nan
attr source harqErrorRate_3rd_Dl
attr title "Harq Error Rate Dl, mean"
attr unit ""
scalar MECHOSTDYN_test1.car.cellularNic.nrMac harqErrorRate_3rd_Ul:mean -nan
attr source harqErrorRate_3rd_Ul
attr title "Harq Error Rate Ul, mean"
attr unit ""
scalar MECHOSTDYN_test1.car.cellularNic.nrMac harqErrorRate_2nd_Dl:mean -nan
attr source harqErrorRate_2nd_Dl
attr title "Harq Error Rate Dl, mean"
attr unit ""
scalar MECHOSTDYN_test1.car.cellularNic.nrMac harqErrorRate_2nd_Ul:mean 0
attr source harqErrorRate_2nd_Ul
attr title "Harq Error Rate Ul, mean"
attr unit ""
scalar MECHOSTDYN_test1.car.cellularNic.nrMac harqErrorRate_1st_Dl:mean -nan
attr source harqErrorRate_1st_Dl
attr title "Harq Error Rate Dl, mean"
attr unit ""
scalar MECHOSTDYN_test1.car.cellularNic.nrMac harqErrorRate_1st_Ul:mean 0.5
attr source harqErrorRate_1st_Ul
attr title "Harq Error Rate Ul, mean"
attr unit ""
scalar MECHOSTDYN_test1.car.cellularNic.nrMac harqTxAttemptsUl:mean 1.5
attr source harqTxAttemptsUl
attr title "Harq Tx Attempts Ul, mean"
attr unit ""
scalar MECHOSTDYN_test1.car.cellularNic.nrMac harqTxAttemptsDl:mean -nan
attr source harqTxAttemptsDl
attr title "Harq Tx Attempts Dl, mean"
attr unit ""
scalar MECHOSTDYN_test1.car.cellularNic.nrMac harqErrorRateDl:mean -nan
attr source harqErrorRateDl
attr title "Harq Error Rate Dl, mean"
attr unit ""
scalar MECHOSTDYN_test1.car.cellularNic.nrMac harqErrorRateUl:mean 0.33333333333333
attr source harqErrorRateUl
attr title "Harq Error Rate Ul, mean"
attr unit ""
scalar MECHOSTDYN_test1.car.cellularNic.nrMac macBufferOverFlowD2D:mean -nan
attr source macBufferOverFlowD2D
attr title "Mac buffer overflow as function of time, mean"
attr unit Byte/s
scalar MECHOSTDYN_test1.car.cellularNic.nrMac macBufferOverFlowUl:mean -nan
attr source macBufferOverFlowUl
attr title "Mac buffer overflow as function of time, mean"
attr unit Byte/s
scalar MECHOSTDYN_test1.car.cellularNic.nrMac macBufferOverFlowDl:mean -nan
attr source macBufferOverFlowDl
attr title "Mac buffer overflow as function of time, mean"
attr unit Byte/s
scalar MECHOSTDYN_test1.car.cellularNic.nrMac macPacketLossDl:mean -nan
attr source macPacketLossDl
attr title "Mac Packet Loss Dl, mean"
attr unit ""
scalar MECHOSTDYN_test1.car.cellularNic.nrMac macPacketLossUl:mean 0
attr source macPacketLossUl
attr title "Mac Packet Loss Ul, mean"
attr unit ""
scalar MECHOSTDYN_test1.car.cellularNic.nrMac macCellPacketLossUl:mean -nan
attr source macCellPacketLossUl
attr title "Mac Cell Packet Loss Ul, mean"
attr unit ""
scalar MECHOSTDYN_test1.car.cellularNic.nrMac macCellPacketLossDl:mean -nan
attr source macCellPacketLossDl
attr title "Mac Cell Packet Loss Dl, mean"
attr unit ""
scalar MECHOSTDYN_test1.car.cellularNic.nrMac macCellThroughputDl:mean -nan
attr source macCellThroughputDl
attr title "Cell Throughput at the MAC layer DL, mean"
attr unit Bps
scalar MECHOSTDYN_test1.car.cellularNic.nrMac macCellThroughputUl:mean -nan
attr source macCellThroughputUl
attr title "Cell Throughput at the MAC layer UL, mean"
attr unit Bps
scalar MECHOSTDYN_test1.car.cellularNic.nrMac macThroughputUl:mean 1078.7640056022
attr source macThroughputUl
attr title "Throughput at the MAC layer UL, mean"
attr unit Bps
scalar MECHOSTDYN_test1.car.cellularNic.nrMac macDelayUl:mean 0.007
attr source macDelayUl
attr title "Delay at the MAC layer UL, mean"
attr unit s
scalar MECHOSTDYN_test1.car.cellularNic.nrMac macThroughputDl:mean -nan
attr source macThroughputDl
attr title "Throughput at the MAC layer DL, mean"
attr unit Bps
scalar MECHOSTDYN_test1.car.cellularNic.nrMac macDelayDl:mean -nan
attr source macDelayDl
attr title "Delay at the MAC layer UL, mean"
attr unit s
scalar MECHOSTDYN_test1.car.cellularNic.nrMac sentPacketToLowerLayer:count 4
attr interpolationmode none
attr source sentPacketToLowerLayer
scalar MECHOSTDYN_test1.car.cellularNic.nrMac sentPacketToLowerLayer:sum(packetBytes) 3976
attr interpolationmode none
attr source sentPacketToLowerLayer
scalar MECHOSTDYN_test1.car.cellularNic.nrMac sentPacketToUpperLayer:count 2
attr interpolationmode none
attr source sentPacketToUpperLayer
scalar MECHOSTDYN_test1.car.cellularNic.nrMac sentPacketToUpperLayer:sum(packetBytes) 2
attr interpolationmode none
attr source sentPacketToUpperLayer
scalar MECHOSTDYN_test1.car.cellularNic.nrMac receivedPacketFromLowerLayer:count 7
attr interpolationmode none
attr source receivedPacketFromLowerLayer
scalar MECHOSTDYN_test1.car.cellularNic.nrMac receivedPacketFromLowerLayer:sum(packetBytes) 7
attr interpolationmode none
attr source receivedPacketFromLowerLayer
scalar MECHOSTDYN_test1.car.cellularNic.nrMac receivedPacketFromUpperLayer:count 4
attr interpolationmode none
attr source receivedPacketFromUpperLayer
scalar MECHOSTDYN_test1.car.cellularNic.nrMac receivedPacketFromUpperLayer:sum(packetBytes) 4108
attr interpolationmode none
attr source receivedPacketFromUpperLayer
par MECHOSTDYN_test1.car.cellularNic.nrPhy typename "\"simu5g.stack.phy.NRPhyUe\""
par MECHOSTDYN_test1.car.cellularNic.nrPhy ueTxPower 26
par MECHOSTDYN_test1.car.cellularNic.nrPhy eNodeBTxPower 46
par MECHOSTDYN_test1.car.cellularNic.nrPhy microTxPower 30
par MECHOSTDYN_test1.car.cellularNic.nrPhy txDirection "\"OMNI\""
par MECHOSTDYN_test1.car.cellularNic.nrPhy txAngle 0
par MECHOSTDYN_test1.car.cellularNic.nrPhy dynamicCellAssociation true
par MECHOSTDYN_test1.car.cellularNic.nrPhy enableHandover false
par MECHOSTDYN_test1.car.cellularNic.nrPhy handoverLatency 0.05s
attr unit s
par MECHOSTDYN_test1.car.cellularNic.nrPhy enableMulticastD2DRangeCheck false
par MECHOSTDYN_test1.car.cellularNic.nrPhy multicastD2DRange 1000m
attr unit m
par MECHOSTDYN_test1.car.cellularNic.nrPhy minRssiDefault true
par MECHOSTDYN_test1.car.cellularNic.nrPhy minRssi -99dB
attr unit dB
par MECHOSTDYN_test1.car.cellularNic.nrPhy d2dTxPower 26
par MECHOSTDYN_test1.car.cellularNic.nrPhy d2dMulticastCaptureEffect true
par MECHOSTDYN_test1.car.cellularNic.nrPhy d2dMulticastCaptureEffectFactor "\"RSRP\""
scalar MECHOSTDYN_test1.car.cellularNic.nrPhy averageCqiD2D:mean -nan
attr source averageCqiD2D
attr title "Average Cqi reported in D2D, mean"
attr unit cqi
scalar MECHOSTDYN_test1.car.cellularNic.nrPhy averageCqiUl:mean 12.333333333333
attr source averageCqiUl
attr title "Average Cqi reported in UL, mean"
attr unit cqi
scalar MECHOSTDYN_test1.car.cellularNic.nrPhy averageCqiUl:count 3
attr source averageCqiUl
attr title "Average Cqi reported in UL, count"
attr unit cqi
scalar MECHOSTDYN_test1.car.cellularNic.nrPhy averageCqiDl:mean -nan
attr source averageCqiDl
attr title "Average Cqi reported in DL, mean"
attr unit cqi
scalar MECHOSTDYN_test1.car.cellularNic.nrPhy averageCqiDl:count 0
attr source averageCqiDl
attr title "Average Cqi reported in DL, count"
attr unit cqi
par MECHOSTDYN_test1.car.cellularNic.nrChannelModel[0] typename "\"simu5g.stack.phy.ChannelModel.NRChannelModel_3GPP38_901\""
par MECHOSTDYN_test1.car.cellularNic.nrChannelModel[0] componentCarrierIndex 0
par MECHOSTDYN_test1.car.cellularNic.nrChannelModel[0] shadowing true
par MECHOSTDYN_test1.car.cellularNic.nrChannelModel[0] scenario "\"URBAN_MACROCELL\""
par MECHOSTDYN_test1.car.cellularNic.nrChannelModel[0] nodeb_height 25
par MECHOSTDYN_test1.car.cellularNic.nrChannelModel[0] building_height 20
par MECHOSTDYN_test1.car.cellularNic.nrChannelModel[0] inside_building false
par MECHOSTDYN_test1.car.cellularNic.nrChannelModel[0] street_wide 20
par MECHOSTDYN_test1.car.cellularNic.nrChannelModel[0] ue_height 1.5
par MECHOSTDYN_test1.car.cellularNic.nrChannelModel[0] tolerateMaxDistViolation false
par MECHOSTDYN_test1.car.cellularNic.nrChannelModel[0] useTorus false
par MECHOSTDYN_test1.car.cellularNic.nrChannelModel[0] correlation_distance 50
par MECHOSTDYN_test1.car.cellularNic.nrChannelModel[0] targetBler 0.01
par MECHOSTDYN_test1.car.cellularNic.nrChannelModel[0] harqReduction 0.2
par MECHOSTDYN_test1.car.cellularNic.nrChannelModel[0] lambdaMinTh 0.02
par MECHOSTDYN_test1.car.cellularNic.nrChannelModel[0] lambdaMaxTh 0.2
par MECHOSTDYN_test1.car.cellularNic.nrChannelModel[0] lambdaRatioTh 20
par MECHOSTDYN_test1.car.cellularNic.nrChannelModel[0] antennaGainUe 0
par MECHOSTDYN_test1.car.cellularNic.nrChannelModel[0] antennGainEnB 18
par MECHOSTDYN_test1.car.cellularNic.nrChannelModel[0] antennGainMicro 5
par MECHOSTDYN_test1.car.cellularNic.nrChannelModel[0] thermalNoise -104.5
par MECHOSTDYN_test1.car.cellularNic.nrChannelModel[0] ue_noise_figure 7
par MECHOSTDYN_test1.car.cellularNic.nrChannelModel[0] bs_noise_figure 5
par MECHOSTDYN_test1.car.cellularNic.nrChannelModel[0] cable_loss 2
par MECHOSTDYN_test1.car.cellularNic.nrChannelModel[0] dynamic_los false
par MECHOSTDYN_test1.car.cellularNic.nrChannelModel[0] fixed_los false
par MECHOSTDYN_test1.car.cellularNic.nrChannelModel[0] fading true
par MECHOSTDYN_test1.car.cellularNic.nrChannelModel[0] fading_type "\"JAKES\""
par MECHOSTDYN_test1.car.cellularNic.nrChannelModel[0] fading_paths 6
par MECHOSTDYN_test1.car.cellularNic.nrChannelModel[0] delay_rms 3.63e-07
par MECHOSTDYN_test1.car.cellularNic.nrChannelModel[0] bgCell_interference true
par MECHOSTDYN_test1.car.cellularNic.nrChannelModel[0] extCell_interference true
par MECHOSTDYN_test1.car.cellularNic.nrChannelModel[0] downlink_interference false
par MECHOSTDYN_test1.car.cellularNic.nrChannelModel[0] uplink_interference false
par MECHOSTDYN_test1.car.cellularNic.nrChannelModel[0] d2d_interference true
par MECHOSTDYN_test1.car.cellularNic.nrChannelModel[0] enable_extCell_los true
par MECHOSTDYN_test1.car.cellularNic.nrChannelModel[0] useRsrqFromLog false
par MECHOSTDYN_test1.car.cellularNic.nrChannelModel[0] rsrqShift 22
par MECHOSTDYN_test1.car.cellularNic.nrChannelModel[0] rsrqScale 1
par MECHOSTDYN_test1.car.cellularNic.nrChannelModel[0] collectSinrStatistics true
par MECHOSTDYN_test1.car.cellularNic.nrChannelModel[0] useBuildingPenetrationLossHighLossModel false
scalar MECHOSTDYN_test1.car.cellularNic.nrChannelModel[0] distance:mean 248.0503981049
attr source distance
attr title "distance between UE and serving base station, mean"
attr unit meters
scalar MECHOSTDYN_test1.car.cellularNic.nrChannelModel[0] measuredSinrUl:mean 31.38256934952
attr source measuredSinrUl
attr title "SINR measured at feedback computation, UL, mean"
attr unit dB
scalar MECHOSTDYN_test1.car.cellularNic.nrChannelModel[0] measuredSinrDl:mean 39.831553597095
attr source measuredSinrDl
attr title "SINR measured at feedback computation, DL, mean"
attr unit dB
scalar MECHOSTDYN_test1.car.cellularNic.nrChannelModel[0] rcvdSinrUl:mean 20.285596440673
attr source rcvdSinrUl
attr title "SINR measured at packet reception, UL, mean"
attr unit dB
scalar MECHOSTDYN_test1.car.cellularNic.nrChannelModel[0] rcvdSinrDl:mean -nan
attr source rcvdSinrDl
attr title "SINR measured at packet reception, DL, mean"
attr unit dB
par MECHOSTDYN_test1.car.cellularNic.nrDlFbGen typename "\"simu5g.stack.phy.feedback.LteDlFeedbackGenerator\""
par MECHOSTDYN_test1.car.cellularNic.nrDlFbGen feedbackType "\"ALLBANDS\""
par MECHOSTDYN_test1.car.cellularNic.nrDlFbGen rbAllocationType "\"localized\""
par MECHOSTDYN_test1.car.cellularNic.nrDlFbGen fbPeriod 6
par MECHOSTDYN_test1.car.cellularNic.nrDlFbGen fbDelay 1
par MECHOSTDYN_test1.car.cellularNic.nrDlFbGen usePeriodic true
par MECHOSTDYN_test1.car.cellularNic.nrDlFbGen initialTxMode "\"SINGLE_ANTENNA_PORT0\""
par MECHOSTDYN_test1.car.cellularNic.nrDlFbGen feedbackGeneratorType "\"IDEAL\""
par MECHOSTDYN_test1.car.cellularNic typename "\"simu5g.stack.NRNicUe\""
par MECHOSTDYN_test1.car.cellularNic displayStringTextFormat "\"%a (%i)\\n%m\""
par MECHOSTDYN_test1.car.cellularNic recordPcap false
par MECHOSTDYN_test1.car.cellularNic numPcapRecorders 0
par MECHOSTDYN_test1.car.cellularNic interfaceTableModule "\"MECHOSTDYN_test1.car.interfaceTable\""
par MECHOSTDYN_test1.car.cellularNic routingTableModule "\"^.ipv4.routingTable\""
par MECHOSTDYN_test1.car.cellularNic LtePdcpRrcType "\"NRPdcpRrcUe\""
par MECHOSTDYN_test1.car.cellularNic LteMacType "\"LteMacUeD2D\""
par MECHOSTDYN_test1.car.cellularNic PacketFlowManagerType "\"PacketFlowManagerUe\""
par MECHOSTDYN_test1.car.cellularNic hasRNISupport false
par MECHOSTDYN_test1.car.cellularNic LtePhyType "\"NRPhyUe\""
par MECHOSTDYN_test1.car.cellularNic nodeType "\"UE\""
par MECHOSTDYN_test1.car.cellularNic processingDelayIn 0s
attr unit s
par MECHOSTDYN_test1.car.cellularNic processingDelayOut 0s
attr unit s
par MECHOSTDYN_test1.car.cellularNic LteChannelModelType "\"LteRealisticChannelModel\""
par MECHOSTDYN_test1.car.cellularNic d2dCapable true
par MECHOSTDYN_test1.car.cellularNic dualConnectivityEnabled false
par MECHOSTDYN_test1.car.cellularNic numCarriers 1
par MECHOSTDYN_test1.car.cellularNic address "\"0A-AA-00-00-00-03\""
par MECHOSTDYN_test1.car.cellularNic d2dInitialMode false
par MECHOSTDYN_test1.car.cellularNic NRMacType "\"NRMacUe\""
par MECHOSTDYN_test1.car.cellularNic NRPhyType "\"NRPhyUe\""
par MECHOSTDYN_test1.car.cellularNic NRChannelModelType "\"NRChannelModel_3GPP38_901\""
par MECHOSTDYN_test1.car.cellularNic NRPacketFlowManagerType "\"NRPacketFlowManagerUe\""
par MECHOSTDYN_test1.car.cellularNic numNRCarriers 1
par MECHOSTDYN_test1.car.at typename "\"inet.common.MessageDispatcher\""
par MECHOSTDYN_test1.car.at displayStringTextFormat "\"processed %p pk (%l)\""
par MECHOSTDYN_test1.car.tn typename "\"inet.common.MessageDispatcher\""
par MECHOSTDYN_test1.car.tn displayStringTextFormat "\"processed %p pk (%l)\""
par MECHOSTDYN_test1.car.nl typename "\"inet.common.MessageDispatcher\""
par MECHOSTDYN_test1.car.nl displayStringTextFormat "\"processed %p pk (%l)\""
par MECHOSTDYN_test1.car typename "\"simu5g.nodes.NR.NRUe\""
par MECHOSTDYN_test1.car mobilityType "\"LinearMobility\""
par MECHOSTDYN_test1.car numApps 1
par MECHOSTDYN_test1.car hasUdp true
par MECHOSTDYN_test1.car hasTcp true
par MECHOSTDYN_test1.car hasSctp false
par MECHOSTDYN_test1.car nodeType "\"UE\""
par MECHOSTDYN_test1.car masterId 0
par MECHOSTDYN_test1.car macNodeId 1026
par MECHOSTDYN_test1.car macCellId 0
par MECHOSTDYN_test1.car nicType "\"NRNicUe\""
par MECHOSTDYN_test1.car hasIpv4 true
par MECHOSTDYN_test1.car hasIpv6 false
par MECHOSTDYN_test1.car numEthInterfaces 0
par MECHOSTDYN_test1.car extHostAddress "\"\""
par MECHOSTDYN_test1.car numLoInterfaces 1
par MECHOSTDYN_test1.car numPcapRecorders 0
par MECHOSTDYN_test1.car hasRNISupport false
par MECHOSTDYN_test1.car nrMasterId 1
par MECHOSTDYN_test1.car nrMacNodeId 2050
par MECHOSTDYN_test1.car nrMacCellId 1
par MECHOSTDYN_test1 typename "\"simulation_examples.simulations.mechostdyn_test.MECHOSTDYN_test1\""

